*Heading
** Job name: Adaptivity-minmax-iter2 Model name: Model-1
** Generated by: Abaqus/CAE 6.14-1
*Preprint, echo=NO, model=NO, history=NO, contact=NO
**
** PARTS
**
*Part, name=Part-1
*End Part
**  
**
** ASSEMBLY
**
*Assembly, name=Assembly
**  
*Instance, name=Part-1-1, part=Part-1
*Node
      1,           0.,         176.
      2,           0.,          44.
      3,  -36.1285477,   172.251938
      4,  -69.2288437,   161.812759
      5,  -98.5705643,   145.807556
      6,  -124.668922,   124.232277
      7,  -146.395142,   97.6957626
      8,  -162.538467,   67.5073776
      9,  -172.578674,   34.5340767
     10,        -176.,           0.
     11,         -44.,           0.
     12,  -20.2207203,   39.0784149
     13,  -39.0089302,   20.3544407
     14,           0.,   141.157028
     15,           0.,   113.771347
     16,           0.,   96.4967575
     17,           0.,   67.8786926
     18,  -69.2432175,           0.
     19,  -89.9304123,           0.
     20,  -108.957848,           0.
** ... 107 like lines cut
*Element, type=CPE3
1,  88,  92,  86
2, 127, 102,  22
*Element, type=CPE4R
  3,  15, 117,  25,  16
  4,  23,  27, 122, 121
  5, 121,  24,  28,  23
  6,   4,   5, 121, 122
  7,  49,  59,  60,  12
  8,  47,  75,  57,  48
  9,  14, 119, 117,  15
 10,  27,  23,  28,  35
 11, 108,  25, 117,  27
 12,  29,  28,  24, 118
 13, 118,  24,   6,   7
 14,  26,  37,  32, 101
 15,  29,  37,  26,  33
 16,  45,  69,  71,  18
 17,  62,  55,  54,  64
 18,  37, 120,  36,  32
 19,  10,  21,  36,   9
 20,  82,  80,  64,  66
 21,  77,  78,  60,  59
 22, 119,   3,   4, 122
** ... 85 like lines cut
*Nset, nset=Set-1, generate
   1,  127,    1
*Elset, elset=Set-1, generate
   1,  107,    1
** Section: Section-1
*Solid Section, elset=Set-1, material=Material-1
1.,
*End Instance
**  
*Nset, nset=Set-1, instance=Part-1-1
 10, 11, 18, 19, 20, 21, 43, 44, 45, 46
*Elset, elset=Set-1, instance=Part-1-1
 16, 19, 25, 32, 34, 46, 47, 48, 56
*Nset, nset=Set-2, instance=Part-1-1
  1,  2, 14, 15, 16, 17, 38, 39, 40, 41, 42
*Elset, elset=Set-2, instance=Part-1-1
  3,  9, 23, 27, 43, 44, 49, 69, 72, 73
*Nset, nset=Set-4, instance=Part-1-1, generate
   1,  127,    1
*Elset, elset=Set-4, instance=Part-1-1, generate
   1,  107,    1
*Nset, nset=Set-6, instance=Part-1-1, generate
   1,  127,    1
*Elset, elset=Set-6, instance=Part-1-1, generate
   1,  107,    1
*Elset, elset=_Surf-1_S4, internal, instance=Part-1-1
  7,  8, 50, 51, 52, 53, 54
*Elset, elset=_Surf-1_S2, internal, instance=Part-1-1
 17, 39, 46, 60, 63
*Elset, elset=_Surf-1_S3, internal, instance=Part-1-1
 49,
*Surface, type=ELEMENT, name=Surf-1
_Surf-1_S4, S4
_Surf-1_S2, S2
_Surf-1_S3, S3
*End Assembly
** 
** MATERIALS
** 
*Material, name=Material-1
*Elastic
1000., 0.3
** ----------------------------------------------------------------
** 
** STEP: Step-1
** 
*Step, name=Step-1, nlgeom=NO
*Static
1., 1., 1e-05, 1.
** 
** BOUNDARY CONDITIONS
** 
** Name: BC-x Type: Symmetry/Antisymmetry/Encastre
*Boundary
Set-2, XSYMM
** Name: BC-y Type: Symmetry/Antisymmetry/Encastre
*Boundary
Set-1, YSYMM
** 
** LOADS
** 
** Name: Load-pressure   Type: Pressure
*Dsload
Surf-1, P, 1e-05
** 
** OUTPUT REQUESTS
** 
*Restart, write, frequency=0
** 
** FIELD OUTPUT: F-Output-1
** 
*Output, field, variable=PRESELECT
** 
** FIELD OUTPUT:  from REMESHING RULE: RemeshingRule-1
** 
*Output, field, frequency=99999
*Element Output, elset=Set-4, directions=YES
ENDENERI, ENDEN, ELEN, MISESERI, MISESAVG, S, EVOL
** 
** HISTORY OUTPUT: H-Output-1
** 
*Output, history, variable=PRESELECT
*End Step
