*Heading
** Job name: Adaptivity-uniform-iter4 Model name: Model-1
** Generated by: Abaqus/CAE 6.14-1
*Preprint, echo=NO, model=NO, history=NO, contact=NO
**
** PARTS
**
*Part, name=Part-1
*End Part
**  
**
** ASSEMBLY
**
*Assembly, name=Assembly
**  
*Instance, name=Part-1-1, part=Part-1
*Node
      1,           0.,         176.
      2,           0.,          44.
      3,  -25.8328629,   174.093842
      4,  -71.1855164,   160.961548
      5,  -101.042282,   144.105713
      6,  -127.090248,   121.754135
      7,  -144.258331,   100.824265
      8,  -160.953751,   71.2031708
      9,  -174.090866,   25.8528881
     10,        -176.,           0.
     11,         -44.,           0.
     12,  -19.8730946,     39.25634
     13,  -38.9971046,   20.3770924
     14,           0.,   151.823547
     15,           0.,   126.800499
     16,           0.,   89.2740173
     17,           0.,    73.396492
     18,  -67.9320831,           0.
     19,  -89.4110184,           0.
     20,  -126.993279,           0.
** ... 4539 like lines cut
*Element, type=CPE3
  1, 2926, 4487, 2839
  2, 1384, 1366,  511
  3, 2687,  600, 2566
  4, 4513, 3294, 4498
  5,  361, 4222, 2109
  6, 2328, 2192, 2330
  7, 1500, 1362,  483
  8, 2560, 2451,  502
  9, 1510, 1493,  512
 10,  533, 4464, 1167
 11, 2332, 2011, 2318
 12, 1507, 1166,  560
 13, 4367,  496, 1357
 14, 1525,  473, 4375
 15, 4232, 1597, 1601
 16, 4405, 1707, 4403
 17, 4486, 1669,  499
 18, 4327,  503, 4394
 19, 1799, 4316, 1778
 20, 1910, 1795, 2084
** ... 83 like lines cut
*Element, type=CPE4R
 104, 3731, 3768, 4133,   32
 105,  728, 3732, 3688, 4044
 106, 3801, 3676, 3726, 3974
 107, 3713, 3726, 3676,  728
 108, 3739, 3698, 3707, 3759
 109, 3588, 3589,  704, 3651
 110, 3588, 3582,  147,  860
 111, 3686, 3836, 3903, 3648
 112, 3796, 3686, 3749, 4047
 113,  769, 4116, 3779, 4145
 114, 3864, 3825,  716, 3714
 115, 3872, 3788, 3829,  724
 116, 3788, 3806,  743, 3760
 117, 1465,  243, 1589, 1617
 118, 1602, 3992,  326, 1992
 119, 1271, 1267, 1043, 1048
 120,   12, 1043, 1041,  933
 121, 1869, 1678,  343, 2008
 122, 1701, 1376,  265, 1498
 123, 1136, 1134,   48,  849
** ... 4346 like lines cut
*Nset, nset=Set-1, generate
    1,  4559,     1
*Elset, elset=Set-1, generate
    1,  4469,     1
** Section: Section-1
*Solid Section, elset=Set-1, material=Material-1
1.,
*End Instance
**  
*Nset, nset=Set-1, instance=Part-1-1
   1,   2,  14,  15,  16,  17,  44,  45,  46,  47,  48, 133, 134, 135, 136, 137
 138, 139, 140, 141, 142, 143, 144, 824, 825, 826, 827, 828, 829, 830, 831, 832
 833, 834, 835, 836, 837, 838, 839, 840, 841, 842, 843, 844, 845, 846, 847, 848
 849, 850, 851, 852, 853, 854
*Elset, elset=Set-1, instance=Part-1-1
  123,  124,  129,  131,  178,  180,  196,  256,  258,  262,  313,  478,  479,  481,  482,  484
  486,  488,  490,  491,  492,  494,  495,  532,  628,  705, 1499, 1500, 1501, 1502, 1503, 1504
 1506, 1507, 1508, 1509, 1510, 1511, 1512, 1513, 1514, 1515, 1516, 1517, 1518, 1519, 1521, 1522
 1523, 1526, 1527, 1701, 1731
*Nset, nset=Set-2, instance=Part-1-1
  10,  11,  18,  19,  20,  21,  49,  50,  51,  52,  53, 155, 156, 157, 158, 159
 160, 161, 162, 163, 164, 165, 166, 878, 879, 880, 881, 882, 883, 884, 885, 886
 887, 888, 889, 890, 891, 892, 893, 894, 895, 896, 897, 898, 899, 900, 901, 902
 903, 904, 905, 906, 907, 908
*Elset, elset=Set-2, instance=Part-1-1
  155,  166,  188,  206,  209,  215,  276,  280,  282,  330,  517,  519,  521,  522,  525,  527
  529,  531,  594,  595,  943, 1547, 1548, 1549, 1550, 1551, 1552, 1553, 1554, 1555, 1556, 1557
 1558, 1559, 1560, 1561, 1562, 1563, 1564, 1565, 1566, 1567, 1568, 1569, 1570, 1571, 1572, 1573
 1574, 1575, 1576, 1577, 1723
*Nset, nset=Set-4, instance=Part-1-1, generate
    1,  4559,     1
*Elset, elset=Set-4, instance=Part-1-1, generate
    1,  4469,     1
*Elset, elset=_Surf-1_S4, internal, instance=Part-1-1
  120,  156,  157,  171,  233,  270,  286,  296,  300,  303,  307,  498,  514,  533,  535,  537
  539,  543,  545,  547,  549,  550,  551,  553,  555,  557,  559,  561,  563,  565,  566,  567
  569,  571,  573,  575,  577,  578,  579,  581,  583,  585,  587,  589,  591,  593,  602,  612
  638,  653,  654,  667,  670,  685, 1578, 1579, 1580, 1581, 1582, 1583, 1584, 1585, 1586, 1587
 1588, 1589, 1590, 1591, 1592, 1593, 1594, 1595, 1596, 1597, 1598, 1599, 1600, 1601, 1602, 1603
 1604, 1605, 1606, 1607, 1608, 1609, 1610, 1611, 1612, 1613, 1614, 1615, 1616, 1617, 1618, 1619
 1620, 1621, 1622, 1623, 1624, 1625, 1626, 1627, 1628, 1629, 1630, 1631, 1632, 1633, 1634, 1635
 1636, 1637, 1638, 1639, 1640, 1641, 1642, 1643, 1644, 1645, 1646, 1647, 1648, 1649, 1650
*Elset, elset=_Surf-1_S2, internal, instance=Part-1-1
  512,  532, 1548, 1688, 1693, 1706, 1711
*Surface, type=ELEMENT, name=Surf-1
_Surf-1_S4, S4
_Surf-1_S2, S2
*End Assembly
** 
** MATERIALS
** 
*Material, name=Material-1
*Elastic
1000., 0.3
** ----------------------------------------------------------------
** 
** STEP: Step-1
** 
*Step, name=Step-1, nlgeom=NO
*Static
1., 1., 1e-05, 1.
** 
** BOUNDARY CONDITIONS
** 
** Name: BC-x-symm Type: Symmetry/Antisymmetry/Encastre
*Boundary
Set-1, XSYMM
** Name: BC-y-symm Type: Symmetry/Antisymmetry/Encastre
*Boundary
Set-2, YSYMM
** 
** LOADS
** 
** Name: Load-1   Type: Pressure
*Dsload
Surf-1, P, 1e-05
** 
** OUTPUT REQUESTS
** 
*Restart, write, frequency=0
** 
** FIELD OUTPUT: F-Output-1
** 
*Output, field, variable=PRESELECT
** 
** FIELD OUTPUT:  from REMESHING RULE: RemeshingRule-1
** 
*Output, field, frequency=99999
*Element Output, elset=Set-4, directions=YES
ENDENERI, ENDEN, ELEN, MISESERI, MISESAVG, S, EVOL
** 
** HISTORY OUTPUT: H-Output-1
** 
*Output, history, variable=PRESELECT
*End Step
