*Heading
** Job name: Adaptivity-uniform-iter3 Model name: Model-1
** Generated by: Abaqus/CAE 6.14-1
*Preprint, echo=NO, model=NO, history=NO, contact=NO
**
** PARTS
**
*Part, name=Part-1
*End Part
**  
**
** ASSEMBLY
**
*Assembly, name=Assembly
**  
*Instance, name=Part-1-1, part=Part-1
*Node
      1,           0.,         176.
      2,           0.,          44.
      3,  -27.8536167,   173.781982
      4,  -71.8393173,   160.670822
      5,  -100.580482,   144.428421
      6,  -125.707062,   123.181717
      7,  -145.991974,    98.297226
      8,  -161.174118,   70.7029266
      9,  -173.816422,   27.6378937
     10,        -176.,           0.
     11,         -44.,           0.
     12,  -19.8743191,   39.2557182
     13,  -38.9093361,   20.5441875
     14,           0.,   149.713745
     15,           0.,   125.894424
     16,           0.,   90.5328293
     17,           0.,   73.0954361
     18,  -68.4438782,           0.
     19,  -90.7219391,           0.
     20,  -126.142212,           0.
** ... 823 like lines cut
*Element, type=CPE3
 1, 799, 576, 597
 2, 422, 420, 421
 3, 505, 476, 472
 4, 524, 557, 815
 5, 526,  67, 497
 6, 423, 531,  73
 7, 529, 496, 491
 8, 777, 535, 561
 9,  88, 843, 615
10, 604, 109, 582
11,  87, 825, 639
12, 633, 112, 619
13, 691, 785, 662
14, 641, 665, 134
15, 748,  25, 739
16, 786, 600, 122
17, 790, 509, 477
18, 810, 808, 699
19, 671, 132, 692
20, 814, 573, 527
*Element, type=CPE4R
 21, 746, 749, 752,  32
 22, 749, 746,  26, 737
 23,  24, 718, 721, 741
 24,   4, 721, 718, 149
 25,  41, 710, 713, 740
 26, 734, 787,  31, 744
 27, 742, 751, 761, 760
 28, 326, 329, 249, 245
 29, 180, 251, 253,  12
 30, 267, 346, 344, 265
 31, 267, 265,  48, 143
 32, 728, 646,  83, 732
 33, 688, 124, 646, 728
 34, 286, 284,  16, 138
 35, 358, 286, 138,  44
 36, 691, 727, 725, 785
 37, 123, 739, 717, 716
 38, 152, 717, 719,   6
 39, 686, 733,  33, 794
 40, 117, 702, 642, 682
** ... 754 like lines cut
*Nset, nset=Set-1, generate
   1,  843,    1
*Elset, elset=Set-1, generate
   1,  794,    1
** Section: Section-1
*Solid Section, elset=Set-1, material=Material-1
1.,
*End Instance
**  
*Nset, nset=Set-1, instance=Part-1-1
   1,   2,  14,  15,  16,  17,  44,  45,  46,  47,  48, 135, 136, 137, 138, 139
 140, 141, 142, 143, 144, 145, 146
*Elset, elset=Set-1, instance=Part-1-1
  31,  34,  35,  59,  60,  70, 105, 106, 108, 134, 225, 226, 227, 229, 230, 231
 232, 233, 234, 254, 304, 343
*Nset, nset=Set-2, instance=Part-1-1
  10,  11,  18,  19,  20,  21,  49,  50,  51,  52,  53, 157, 158, 159, 160, 161
 162, 163, 164, 165, 166, 167, 168
*Elset, elset=Set-2, instance=Part-1-1
  47,  53,  64,  77,  78,  81, 115, 117, 118, 144, 243, 244, 246, 247, 248, 249
 250, 251, 252, 253, 285, 477
*Nset, nset=Set-4, instance=Part-1-1, generate
   1,  843,    1
*Elset, elset=Set-4, instance=Part-1-1, generate
   1,  794,    1
*Elset, elset=_Surf-1_S4, internal, instance=Part-1-1
  29,  48,  55,  92, 112, 120, 125, 127, 254, 255, 256, 257, 258, 259, 260, 261
 262, 263, 264, 265, 266, 267, 268, 269, 270, 271, 272, 273, 274, 275, 276, 277
 278, 279, 280, 281, 282, 283, 284, 316, 323
*Elset, elset=_Surf-1_S2, internal, instance=Part-1-1
 114, 129, 131, 236, 244, 245, 290, 296, 309, 317, 325, 333, 336
*Surface, type=ELEMENT, name=Surf-1
_Surf-1_S4, S4
_Surf-1_S2, S2
*End Assembly
** 
** MATERIALS
** 
*Material, name=Material-1
*Elastic
1000., 0.3
** ----------------------------------------------------------------
** 
** STEP: Step-1
** 
*Step, name=Step-1, nlgeom=NO
*Static
1., 1., 1e-05, 1.
** 
** BOUNDARY CONDITIONS
** 
** Name: BC-x-symm Type: Symmetry/Antisymmetry/Encastre
*Boundary
Set-1, XSYMM
** Name: BC-y-symm Type: Symmetry/Antisymmetry/Encastre
*Boundary
Set-2, YSYMM
** 
** LOADS
** 
** Name: Load-1   Type: Pressure
*Dsload
Surf-1, P, 1e-05
** 
** OUTPUT REQUESTS
** 
*Restart, write, frequency=0
** 
** FIELD OUTPUT: F-Output-1
** 
*Output, field, variable=PRESELECT
** 
** FIELD OUTPUT:  from REMESHING RULE: RemeshingRule-1
** 
*Output, field, frequency=99999
*Element Output, elset=Set-4, directions=YES
ENDENERI, ENDEN, ELEN, MISESERI, MISESAVG, S, EVOL
** 
** HISTORY OUTPUT: H-Output-1
** 
*Output, history, variable=PRESELECT
*End Step
