*Heading
** Job name: Adaptivity-uniform-iter5 Model name: Model-1
** Generated by: Abaqus/CAE 6.14-1
*Preprint, echo=NO, model=NO, history=NO, contact=NO
**
** PARTS
**
*Part, name=Part-1
*End Part
**  
**
** ASSEMBLY
**
*Assembly, name=Assembly
**  
*Instance, name=Part-1-1, part=Part-1
*Node
      1,           0.,         176.
      2,           0.,          44.
      3,  -25.6642265,   174.118774
      4,  -70.0223312,   161.470963
      5,  -100.203323,   144.690338
      6,  -126.515907,    122.35083
      7,  -144.847763,   99.9756165
      8,  -160.470139,   72.2864609
      9,  -174.124481,    25.625452
     10,        -176.,           0.
     11,         -44.,           0.
     12,  -19.9533463,   39.2156067
     13,  -38.9867935,   20.3968105
     14,           0.,   152.068817
     15,           0.,   126.767303
     16,           0.,   89.7601089
     17,           0.,   73.7320099
     18,  -67.7324905,           0.
     19,  -89.8234024,           0.
     20,  -126.907898,           0.
** ... 24912 like lines cut
*Element, type=CPE3
  1, 22483, 20371, 20579
  2,  9911,  9238,  9818
  3, 19360, 19346,  3418
  4, 21438, 21586,  8322
  5, 12500, 12906, 12577
  6, 12905, 12543,  2637
  7, 21132, 21155,  6353
  8,  1291,  6203,  6447
  9,  6886,  6197,  1268
 10, 21701,  1595,  8053
 11,  9201,  7745,  8047
 12, 13077, 12807,  2035
 13, 10231, 12080,  9289
 14, 13059,  1877, 12716
 15,  5886,  5880,  6256
 16, 22918,  9299,  8333
 17, 22829, 13700, 13336
 18, 15982, 16117, 16111
 19, 11939, 12473,  3932
 20, 11158, 11142,   407
** ... 709 like lines cut
*Element, type=CPE4R
  730,  3635, 19995, 19838, 19809
  731, 19978, 19892, 23093,    32
  732, 22818, 19955, 22732, 20014
  733, 19955, 19864, 22794, 19817
  734, 20564, 20262, 22483, 20579
  735, 19968, 20124,  3619, 22355
  736, 20124, 20262, 20247,  3619
  737, 20412, 20330, 20222, 20348
  738, 21788, 20287, 20299,  3662
  739, 19281, 21128, 19465, 19415
  740,  3499, 19281, 19415, 19445
  741,   146, 19096, 19087,  4524
  742, 19096, 19099, 19289,  3493
  743, 20148, 19925,  3556, 20085
  744,  3738, 20066, 20196, 20385
  745, 20565, 20605, 21598, 20418
  746,  3653, 20418, 20347, 21409
  747, 19677, 19533, 23198,   752
  748, 19643, 19510, 19533, 19677
  749, 20103, 20109, 20114, 23214
** ... 24233 like lines cut
*Nset, nset=Set-1, generate
     1,  24932,      1
*Elset, elset=Set-1, generate
     1,  24982,      1
** Section: Section-1
*Solid Section, elset=Set-1, material=Material-1
1.,
*End Instance
**  
*Nset, nset=Set-1, instance=Part-1-1
    1,    2,   14,   15,   16,   17,   44,   45,   46,   47,   48,  132,  133,  134,  135,  136
  137,  138,  139,  140,  141,  142,  143,  806,  807,  808,  809,  810,  811,  812,  813,  814
  815,  816,  817,  818,  819,  820,  821,  822,  823,  824,  825,  826,  827,  828,  829,  830
  831,  832,  833,  834,  835,  836, 4439, 4440, 4441, 4442, 4443, 4444, 4445, 4446, 4447, 4448
 4449, 4450, 4451, 4452, 4453, 4454, 4455, 4456, 4457, 4458, 4459, 4460, 4461, 4462, 4463, 4464
 4465, 4466, 4467, 4468, 4469, 4470, 4471, 4472, 4473, 4474, 4475, 4476, 4477, 4478, 4479, 4480
 4481, 4482, 4483, 4484, 4485, 4486, 4487, 4488, 4489, 4490, 4491, 4492, 4493, 4494, 4495, 4496
 4497, 4498, 4499, 4500, 4501, 4502, 4503, 4504, 4505, 4506, 4507, 4508, 4509, 4510, 4511, 4512
*Elset, elset=Set-1, instance=Part-1-1
  766,  768,  776,  780,  869,  873,  900, 1009, 1010, 1013, 1021, 1118, 1427, 1428, 1431, 1433
 1437, 1440, 1444, 1448, 1450, 1452, 1455, 1457, 1530, 1712, 1859, 3285, 3286, 3288, 3290, 3292
 3294, 3298, 3300, 3302, 3304, 3306, 3308, 3310, 3312, 3314, 3316, 3318, 3320, 3322, 3324, 3328
 3330, 3332, 3336, 3338, 3666, 3722, 8631, 8632, 8633, 8634, 8635, 8636, 8637, 8638, 8639, 8640
 8641, 8642, 8643, 8644, 8645, 8646, 8647, 8649, 8650, 8651, 8652, 8653, 8654, 8655, 8656, 8657
 8658, 8659, 8660, 8661, 8662, 8663, 8664, 8665, 8666, 8667, 8668, 8669, 8670, 8671, 8672, 8673
 8674, 8675, 8676, 8677, 8678, 8679, 8680, 8681, 8682, 8683, 8684, 8685, 8686, 8687, 8688, 8689
 8690, 8691, 8692, 8693, 8694, 8695, 8696, 8697, 8698, 8699, 8700, 8701, 8703, 8821, 9130
*Nset, nset=Set-2, instance=Part-1-1
   10,   11,   18,   19,   20,   21,   49,   50,   51,   52,   53,  154,  155,  156,  157,  158
  159,  160,  161,  162,  163,  164,  165,  860,  861,  862,  863,  864,  865,  866,  867,  868
  869,  870,  871,  872,  873,  874,  875,  876,  877,  878,  879,  880,  881,  882,  883,  884
  885,  886,  887,  888,  889,  890, 4568, 4569, 4570, 4571, 4572, 4573, 4574, 4575, 4576, 4577
 4578, 4579, 4580, 4581, 4582, 4583, 4584, 4585, 4586, 4587, 4588, 4589, 4590, 4591, 4592, 4593
 4594, 4595, 4596, 4597, 4598, 4599, 4600, 4601, 4602, 4603, 4604, 4605, 4606, 4607, 4608, 4609
 4610, 4611, 4612, 4613, 4614, 4615, 4616, 4617, 4618, 4619, 4620, 4621, 4622, 4623, 4624, 4625
 4626, 4627, 4628, 4629, 4630, 4631, 4632, 4633, 4634, 4635, 4636, 4637, 4638, 4639, 4640, 4641
*Elset, elset=Set-2, instance=Part-1-1
   826,   848,   889,   918,   923,   934,  1050,  1057,  1061,  1151,  1502,  1506,  1510,  1512,  1517,  1521
  1524,  1525,  1529,  1650,  1653,  2289,  3379,  3380,  3381,  3384,  3386,  3388,  3390,  3392,  3393,  3394
  3396,  3398,  3399,  3400,  3401,  3402,  3404,  3406,  3408,  3410,  3412,  3414,  3416,  3418,  3420,  3422
  3424,  3425,  3428,  3430,  3432,  3434,  3436,  3438,  3707,  8753,  8754,  8755,  8756,  8757,  8758,  8759
  8760,  8761,  8762,  8763,  8764,  8765,  8766,  8767,  8768,  8769,  8770,  8771,  8772,  8773,  8774,  8775
  8776,  8777,  8778,  8779,  8780,  8781,  8782,  8783,  8784,  8785,  8786,  8787,  8788,  8789,  8790,  8791
  8792,  8793,  8794,  8795,  8796,  8797,  8798,  8799,  8800,  8801,  8802,  8803,  8804,  8805,  8806,  8807
  8808,  8809,  8810,  8811,  8812,  8813,  8814,  8815,  8816,  8817,  8818,  8819,  8820, 22037, 22048
*Nset, nset=Set-4, instance=Part-1-1, generate
     1,  24932,      1
*Elset, elset=Set-4, instance=Part-1-1, generate
     1,  24982,      1
*Elset, elset=_Surf-1_S4, internal, instance=Part-1-1
  828,  830,  858, 1038, 1069, 1095, 1101, 1109, 1491, 1496, 1531, 1533, 1537, 1545, 1552, 1556
 1560, 1564, 1566, 1568, 1572, 1576, 1579, 1584, 1590, 1591, 1594, 1595, 1596, 1597, 1598, 1604
 1609, 1613, 1616, 1617, 1619, 1625, 1633, 1637, 1644, 1645, 1648, 1649, 1665, 1683, 1732, 1761
 1763, 1786, 1787, 1819, 3379, 3442, 3447, 3449, 3450, 3451, 3453, 3458, 3459, 3460, 3462, 3464
 3466, 3468, 3470, 3472, 3474, 3476, 3477, 3478, 3484, 3490, 3493, 3497, 3498, 3499, 3505, 3509
 3513, 3515, 3517, 3521, 3523, 3524, 3525, 3530, 3532, 3534, 3537, 3539, 3542, 3544, 3545, 3546
 3548, 3550, 3551, 3552, 3553, 3559, 3561, 3563, 3565, 3567, 3568, 3571, 3641, 3650, 3674, 3675
 3684, 8821, 8822, 8824, 8826, 8827, 8828, 8829, 8831, 8832, 8833, 8834, 8836, 8837, 8838, 8839
 8840, 8841, 8842, 8843, 8846, 8848, 8850, 8851, 8852, 8853, 8854, 8855, 8856, 8857, 8858, 8861
 8862, 8864, 8865, 8866, 8867, 8868, 8869, 8870, 8871, 8872, 8873, 8874, 8875, 8876, 8877, 8878
 8879, 8881, 8882, 8883, 8884, 8885, 8886, 8887, 8888, 8889, 8891, 8892, 8893, 8894, 8896, 8897
 8898, 8901, 8903, 8904, 8905, 8906, 8907, 8909, 8910, 8911, 8915, 8916, 8917, 8938, 8956, 8990
 9017,
*Elset, elset=_Surf-1_S2, internal, instance=Part-1-1
  829,  857, 1086, 1087, 1094, 1108, 1463, 1464, 1492, 1495, 1565, 1567, 1583, 1593, 1608, 1612
 1664, 1762, 3439, 3440, 3443, 3444, 3446, 3448, 3456, 3457, 3461, 3471, 3487, 3488, 3514, 3516
 3529, 3531, 3533, 3543, 3566, 8823, 8825, 8830, 8835, 8844, 8845, 8849, 8859, 8860, 8880, 8890
 8895, 8899, 8900, 8902, 8908, 8912, 8913, 8914, 8918, 8919, 8922, 8923, 8931, 8934, 8939, 8940
 8945, 8951, 8952, 8953, 8954, 8958, 8959, 8962, 8964, 8969, 8974, 8977, 8984, 8986, 8989, 9005
*Elset, elset=_Surf-1_S3, internal, instance=Part-1-1
 3492, 3540, 8847, 8863
*Surface, type=ELEMENT, name=Surf-1
_Surf-1_S4, S4
_Surf-1_S2, S2
_Surf-1_S3, S3
*End Assembly
** 
** MATERIALS
** 
*Material, name=Material-1
*Elastic
1000., 0.3
** ----------------------------------------------------------------
** 
** STEP: Step-1
** 
*Step, name=Step-1, nlgeom=NO
*Static
1., 1., 1e-05, 1.
** 
** BOUNDARY CONDITIONS
** 
** Name: BC-x-symm Type: Symmetry/Antisymmetry/Encastre
*Boundary
Set-1, XSYMM
** Name: BC-y-symm Type: Symmetry/Antisymmetry/Encastre
*Boundary
Set-2, YSYMM
** 
** LOADS
** 
** Name: Load-1   Type: Pressure
*Dsload
Surf-1, P, 1e-05
** 
** OUTPUT REQUESTS
** 
*Restart, write, frequency=0
** 
** FIELD OUTPUT: F-Output-1
** 
*Output, field, variable=PRESELECT
** 
** FIELD OUTPUT:  from REMESHING RULE: RemeshingRule-1
** 
*Output, field, frequency=99999
*Element Output, elset=Set-4, directions=YES
ENDENERI, ENDEN, ELEN, MISESERI, MISESAVG, S, EVOL
** 
** HISTORY OUTPUT: H-Output-1
** 
*Output, history, variable=PRESELECT
*End Step
