*Heading
** Job name: Adaptivity-minmax-iter4 Model name: Model-1
** Generated by: Abaqus/CAE 6.14-1
*Preprint, echo=NO, model=NO, history=NO, contact=NO
**
** PARTS
**
*Part, name=Part-1
*End Part
**  
**
** ASSEMBLY
**
*Assembly, name=Assembly
**  
*Instance, name=Part-1-1, part=Part-1
*Node
      1,           0.,         176.
      2,           0.,          44.
      3,  -36.4486732,   172.184479
      4,   -65.626152,   163.307098
      5,  -104.985268,   141.258957
      6,  -120.333969,    128.43573
      7,  -148.675095,   94.1897964
      8,  -158.449829,   76.6136627
      9,  -172.776016,   33.5327911
     10,        -176.,           0.
     11,         -44.,           0.
     12,  -20.6175499,   38.8705101
     13,  -39.2156105,   19.9533463
     14,           0.,    135.66922
     15,           0.,   112.640892
     16,           0.,    98.765152
     17,           0.,   67.8980942
     18,  -70.1617661,           0.
     19,  -89.8555298,           0.
     20,  -106.331085,           0.
** ... 19274 like lines cut
*Element, type=CPE3
  1, 15855, 15848, 15795
  2, 18167,  9255,  8667
  3, 16712, 16877,   450
  4, 17371, 10593, 17408
  5, 17970, 17928, 11775
  6, 11884, 10820, 11211
  7,  9100,  8605,  8526
  8,  6910,   535,  6425
  9, 18120,   666,  7844
 10,  6081,  5581,   664
 11,  3583,   670,  3018
 12,  9562, 18673, 10155
 13, 12739, 12276, 11810
 14,  7561,  6995,  5891
 15,  9630, 18360,  9032
 16, 18886,  5618,  6166
 17, 11540, 11018,   744
 18, 17700, 12969, 12509
 19,  8436,  9110,  9495
 20,  4594,   838,  4165
** ... 512 like lines cut
*Element, type=CPE4R
  533,  4237,  4783,  3679,  3691
  534,  3691, 16828,  4242,  4237
  535,  2580,  3136,  3132,  2574
  536,  2574,  2569,   121,  1734
  537, 15857, 15737, 15854, 17053
  538, 15797,    26, 15736, 15674
  539, 16175, 16218, 16214, 16123
  540, 16066, 16174, 16176, 16122
  541, 16220, 16123, 16214, 16960
  542, 16257, 16300, 16344, 17133
  543, 16261, 16201, 16168,    27
  544,  3894,  3812,  4384,  4999
  545,  4872,  5433,  4261,   235
  546,  2132,  1949,  1948,  2323
  547,  2352,  1950,  1949,  2132
  548,  4358,  4364, 16979,  4798
  549,  4828,  4889,  4381,  4370
  550,  1913,  2355,  2173,  1914
  551,  1914,  2173,  2333,    46
  552,  5901,  5353,  3693, 16826
** ... 18742 like lines cut
*Nset, nset=Set-1, generate
     1,  19294,      1
*Elset, elset=Set-1, generate
     1,  19294,      1
** Section: Section-1
*Solid Section, elset=Set-1, material=Material-1
1.,
*End Instance
**  
*Nset, nset=Set-1, instance=Part-1-1
   10,   11,   18,   19,   20,   21,   41,   42,   43,   44,  150,  151,  152,  153,  154,  155
  156,  157,  158,  159,  160,  161,  162,  163,  164,  165,  166,  167,  168,  169,  170,  171
  172,  173,  174, 1813, 1814, 1815, 1816, 1817, 1818, 1819, 1820, 1821, 1822, 1823, 1824, 1825
 1826, 1827, 1828, 1829, 1830, 1831, 1832, 1833, 1834, 1835, 1836, 1837, 1838, 1839, 1840, 1841
 1842, 1843, 1844, 1845, 1846, 1847, 1848, 1849, 1850, 1851, 1852, 1853, 1854, 1855, 1856, 1857
 1858, 1859, 1860, 1861, 1862, 1863, 1864, 1865, 1866, 1867, 1868, 1869, 1870, 1871, 1872, 1873
 1874, 1875, 1876, 1877, 1878, 1879, 1880, 1881, 1882, 1883
*Elset, elset=Set-1, instance=Part-1-1
   578,   608,   632,   643,   683,   686,   691,   721,   970,   971,   973,   978,   981,   982,   985,   987
   988,   991,   993,   995,   997,   998,  1001,  1002,  1005,  1007,  1009,  1011,  1013,  1074,  1075,  1214
  1238,  1258,  1271,  1272,  3647,  3648,  3649,  3651,  3652,  3653,  3654,  3655,  3656,  3657,  3658,  3659
  3660,  3661,  3662,  3663,  3664,  3665,  3666,  3667,  3668,  3669,  3670,  3671,  3672,  3673,  3674,  3675
  3676,  3677,  3678,  3679,  3680,  3681,  3682,  3683,  3684,  3685,  3686,  3687,  3688,  3689,  3690,  3691
  3692,  3693,  3694,  3695,  3696,  3697,  3698,  3699,  3700,  3701,  3702,  3703,  3704,  3705,  3706,  3707
  3708,  3857,  3858,  3862,  4161,  4171,  4179,  6422, 18490
*Nset, nset=Set-2, instance=Part-1-1
    1,    2,   14,   15,   16,   17,   36,   37,   38,   39,   40,  115,  116,  117,  118,  119
  120,  121,  122,  123,  124,  125,  126,  127,  128,  129,  130,  131,  132,  133,  134,  135
  136,  137,  138,  139,  140, 1718, 1719, 1720, 1721, 1722, 1723, 1724, 1725, 1726, 1727, 1728
 1729, 1730, 1731, 1732, 1733, 1734, 1735, 1736, 1737, 1738, 1739, 1740, 1741, 1742, 1743, 1744
 1745, 1746, 1747, 1748, 1749, 1750, 1751, 1752, 1753, 1754, 1755, 1756, 1757, 1758, 1759, 1760
 1761, 1762, 1763, 1764, 1765, 1766, 1767, 1768, 1769, 1770, 1771, 1772, 1773, 1774, 1775, 1776
 1777, 1778
*Elset, elset=Set-2, instance=Part-1-1
  536,  555,  600,  602,  614,  615,  673,  677,  768,  779,  783,  914,  916,  918,  920,  922
  924,  926,  928,  930,  931,  932,  935,  936,  937,  939,  940,  944,  946,  948,  950,  952
 1250, 1251, 1265, 1323, 3563, 3564, 3565, 3566, 3567, 3568, 3569, 3570, 3571, 3572, 3573, 3574
 3575, 3576, 3577, 3578, 3579, 3580, 3581, 3582, 3583, 3584, 3585, 3586, 3587, 3588, 3589, 3590
 3591, 3592, 3593, 3594, 3595, 3596, 3597, 3598, 3599, 3600, 3601, 3602, 3603, 3604, 3605, 3606
 3607, 3608, 3609, 3610, 3612, 3613, 3614, 3615, 3709, 3710, 3871, 3873, 3876, 3880, 4211, 4212
 4241,
*Nset, nset=Set-4, instance=Part-1-1, generate
     1,  19294,      1
*Elset, elset=Set-4, instance=Part-1-1, generate
     1,  19294,      1
*Nset, nset=Set-6, instance=Part-1-1, generate
     1,  19294,      1
*Elset, elset=Set-6, instance=Part-1-1, generate
     1,  19294,      1
*Elset, elset=_Surf-1_S2, internal, instance=Part-1-1
  546,  547,  693,  955, 1015, 1021, 1022, 1028, 1031, 1032, 1033, 1037, 1039, 1049, 1058, 1060
 1061, 1067, 1095, 1140, 1191, 1198, 3713, 3715, 3717, 3719, 3722, 3724, 3726, 3727, 3729, 3730
 3732, 3737, 3738, 3740, 3741, 3743, 3744, 3747, 3748, 3751, 3753, 3758, 3760, 3762, 3764, 3766
 3771, 3775, 3778, 3781, 3783, 3784, 3787, 3790, 3792, 3794, 3795, 3798, 3800, 3803, 3806, 3808
 3812, 3813, 3818, 3819, 3823, 3824, 3828, 3831, 3833, 3835, 3840, 3843, 3846, 3848, 3849, 3854
 3882, 3883, 3886, 3887, 3888, 3890, 3892, 3897, 3898, 3899, 3903, 3904, 3905, 3909, 3912, 3913
 3914, 3921, 3922, 3925, 3926, 3929, 3932, 3933, 3935, 3939, 3940, 3941, 3943, 3952, 3959, 3965
 3968, 3975, 3976, 3978, 3980, 3981, 3991, 3994, 3996, 4003, 4018, 4020, 4024, 4035, 4049, 4344
*Elset, elset=_Surf-1_S4, internal, instance=Part-1-1
  550,  551,  580,  581,  659,  680,  699,  702,  703,  710,  732,  745,  975, 1016, 1017, 1018
 1019, 1023, 1025, 1027, 1030, 1036, 1038, 1040, 1041, 1042, 1043, 1046, 1048, 1050, 1051, 1052
 1054, 1055, 1057, 1059, 1063, 1069, 1070, 1072, 1073, 1084, 1085, 1096, 1110, 1111, 1120, 1121
 1141, 1148, 1161, 1176, 1177, 1197, 1199, 3647, 3709, 3712, 3714, 3716, 3718, 3720, 3721, 3723
 3725, 3728, 3731, 3733, 3734, 3735, 3736, 3739, 3742, 3745, 3746, 3749, 3750, 3752, 3754, 3755
 3756, 3757, 3759, 3761, 3763, 3765, 3767, 3768, 3769, 3770, 3772, 3773, 3774, 3776, 3777, 3779
 3780, 3782, 3785, 3786, 3788, 3789, 3791, 3793, 3796, 3797, 3799, 3801, 3802, 3804, 3805, 3807
 3809, 3810, 3811, 3814, 3815, 3816, 3817, 3820, 3821, 3822, 3825, 3826, 3827, 3829, 3830, 3832
 3834, 3836, 3837, 3838, 3839, 3841, 3842, 3844, 3845, 3847, 3850, 3851, 3852, 3853, 3856, 3901
 3908, 3928, 3936, 3957, 3967
*Surface, type=ELEMENT, name=Surf-1
_Surf-1_S2, S2
_Surf-1_S4, S4
*End Assembly
** 
** MATERIALS
** 
*Material, name=Material-1
*Elastic
1000., 0.3
** ----------------------------------------------------------------
** 
** STEP: Step-1
** 
*Step, name=Step-1, nlgeom=NO
*Static
1., 1., 1e-05, 1.
** 
** BOUNDARY CONDITIONS
** 
** Name: BC-x Type: Symmetry/Antisymmetry/Encastre
*Boundary
Set-2, XSYMM
** Name: BC-y Type: Symmetry/Antisymmetry/Encastre
*Boundary
Set-1, YSYMM
** 
** LOADS
** 
** Name: Load-pressure   Type: Pressure
*Dsload
Surf-1, P, 1e-05
** 
** OUTPUT REQUESTS
** 
*Restart, write, frequency=0
** 
** FIELD OUTPUT: F-Output-1
** 
*Output, field, variable=PRESELECT
** 
** FIELD OUTPUT:  from REMESHING RULE: RemeshingRule-1
** 
*Output, field, frequency=99999
*Element Output, elset=Set-4, directions=YES
ENDENERI, ENDEN, ELEN, MISESERI, MISESAVG, S, EVOL
** 
** HISTORY OUTPUT: H-Output-1
** 
*Output, history, variable=PRESELECT
*End Step
