*Heading
** Job name: Adaptivity-uniform-iter2 Model name: Model-1
** Generated by: Abaqus/CAE 6.14-1
*Preprint, echo=NO, model=NO, history=NO, contact=NO
**
** PARTS
**
*Part, name=Part-1
*End Part
**  
**
** ASSEMBLY
**
*Assembly, name=Assembly
**  
*Instance, name=Part-1-1, part=Part-1
*Node
      1,           0.,         176.
      2,           0.,          44.
      3,  -34.0099068,   172.682739
      4,  -67.6506348,   162.478897
      5,  -98.2761307,   146.006165
      6,  -125.061966,   123.836601
      7,  -147.352448,   96.2458115
      8,  -163.701324,   64.6364975
      9,  -173.152954,   31.5286465
     10,        -176.,           0.
     11,         -44.,           0.
     12,  -19.7352104,   39.3258362
     13,  -38.8373795,   20.6798916
     14,           0.,   147.735031
     15,           0.,   123.769135
     16,           0.,   92.2193146
     17,           0.,   71.2412186
     18,  -70.0994797,           0.
     19,  -90.4687576,           0.
     20,  -123.785614,           0.
** ... 117 like lines cut
*Element, type=CPE3
1, 118,  34, 116
*Element, type=CPE4R
  2,  26,  42,  24,  32
  3,   4,   5, 129,  24
  4,   3,   4,  24,  42
  5,  29,  31, 129,  25
  6,  57,  66,  67,  12
  7,  49,  48,  76, 128
  8, 127,  84,  26,  32
  9,  84,  83,  16,  45
 10,  32,  31,  37, 127
 11,   6,   7, 126,  25
 12,  29,  25, 126,  33
 13, 120,  30,  36,  40
 14,  36,  30,  44, 111
 15, 102, 111,  44,  38
 16,  34, 118,  28, 100
 17,  52,  77,  79,  18
 18,  72,  63,  62,  74
 19,  43,  23,   8,   9
 20,  21,  43,   9,  10
 21,  13,  75,  74,  62
** ... 95 like lines cut
*Nset, nset=Set-1, generate
   1,  137,    1
*Elset, elset=Set-1, generate
   1,  116,    1
** Section: Section-1
*Solid Section, elset=Set-1, material=Material-1
1.,
*End Instance
**  
*Nset, nset=Set-1, instance=Part-1-1
  1,  2, 14, 15, 16, 17, 45, 46, 47, 48, 49
*Elset, elset=Set-1, instance=Part-1-1
  7,  9, 23, 24, 30, 50, 51, 52, 58, 65
*Nset, nset=Set-2, instance=Part-1-1
 10, 11, 18, 19, 20, 21, 50, 51, 52, 53, 54
*Elset, elset=Set-2, instance=Part-1-1
 17, 20, 26, 34, 36, 37, 55, 56, 57, 70
*Nset, nset=Set-4, instance=Part-1-1, generate
   1,  137,    1
*Elset, elset=Set-4, instance=Part-1-1, generate
   1,  116,    1
*Elset, elset=_Surf-1_S4, internal, instance=Part-1-1
  6, 21, 43, 58, 59, 60, 61, 62, 63, 64
*Elset, elset=_Surf-1_S2, internal, instance=Part-1-1
 18, 54, 55
*Surface, type=ELEMENT, name=Surf-1
_Surf-1_S4, S4
_Surf-1_S2, S2
*End Assembly
** 
** MATERIALS
** 
*Material, name=Material-1
*Elastic
1000., 0.3
** ----------------------------------------------------------------
** 
** STEP: Step-1
** 
*Step, name=Step-1, nlgeom=NO
*Static
1., 1., 1e-05, 1.
** 
** BOUNDARY CONDITIONS
** 
** Name: BC-x-symm Type: Symmetry/Antisymmetry/Encastre
*Boundary
Set-1, XSYMM
** Name: BC-y-symm Type: Symmetry/Antisymmetry/Encastre
*Boundary
Set-2, YSYMM
** 
** LOADS
** 
** Name: Load-1   Type: Pressure
*Dsload
Surf-1, P, 1e-05
** 
** OUTPUT REQUESTS
** 
*Restart, write, frequency=0
** 
** FIELD OUTPUT: F-Output-1
** 
*Output, field, variable=PRESELECT
** 
** FIELD OUTPUT:  from REMESHING RULE: RemeshingRule-1
** 
*Output, field, frequency=99999
*Element Output, elset=Set-4, directions=YES
ENDENERI, ENDEN, ELEN, MISESERI, MISESAVG, S, EVOL
** 
** HISTORY OUTPUT: H-Output-1
** 
*Output, history, variable=PRESELECT
*End Step
