*Heading
** Job name: Adaptivity-minmax-iter3 Model name: Model-1
** Generated by: Abaqus/CAE 6.14-1
*Preprint, echo=NO, model=NO, history=NO, contact=NO
**
** PARTS
**
*Part, name=Part-1
*End Part
**  
**
** ASSEMBLY
**
*Assembly, name=Assembly
**  
*Instance, name=Part-1-1, part=Part-1
*Node
      1,           0.,         176.
      2,           0.,          44.
      3,  -35.5781364,   172.366455
      4,  -66.6016617,   162.911682
      5,  -103.603882,   142.275208
      6,  -121.534576,   127.300217
      7,  -149.776825,   92.4278336
      8,  -159.178818,   75.0873032
      9,  -173.035995,   32.1643524
     10,        -176.,           0.
     11,         -44.,           0.
     12,  -20.5475197,   38.9075775
     13,  -39.1873169,   20.0088539
     14,           0.,   137.166809
     15,           0.,   112.127762
     16,           0.,   98.5209045
     17,           0.,   67.4586411
     18,  -69.9328537,           0.
     19,  -89.2737122,           0.
     20,  -106.409561,           0.
** ... 1764 like lines cut
*Element, type=CPE3
 1, 1623, 1627,  117
 2, 1543, 1504, 1535
 3,  745,  821,  743
 4,  989,  837,  912
 5,  980,  880,  904
 6, 1087, 1022,  921
 7, 1209, 1140,   27
 8, 1705, 1256, 1195
 9, 1355, 1284,   82
10, 1358,   78, 1756
11, 1252, 1159, 1237
12, 1346, 1294, 1226
13, 1357, 1410, 1722
14, 1368, 1444, 1401
15, 1467,  112, 1424
16, 1515, 1514, 1484
17, 1764, 1478, 1387
18, 1495, 1437, 1492
19, 1493, 1780, 1782
20, 1523, 1460, 1551
** ... 7 like lines cut
*Element, type=CPE4R
  28,  455,  454,  333,  335
  29,   16,  333,  332,  128
  30, 1209,   27, 1273,   23
  31, 1273, 1627,  116,   23
  32, 1624,   28,   23,  116
  33,   28, 1624,   24, 1335
  34,  368,  378,  251,  242
  35,  196,  267,  270,   12
  36,  354,  355,  232,  231
  37,  188,  234,  235,   48
  38,  462,  459,  340,  342
  39,   15,  337,  335,  127
  40, 1334,   28, 1335, 1476
  41, 1334, 1209,   23,   28
  42,  669,  766,  836,  764
  43,  836,  914,  913, 1649
  44, 1336, 1625, 1275,   29
  45,  152, 1625, 1630,    6
  46,   24, 1630, 1625, 1336
  47,  840,  993,  919,  842
** ... 1676 like lines cut
*Nset, nset=Set-1, generate
    1,  1784,     1
*Elset, elset=Set-1, generate
    1,  1723,     1
** Section: Section-1
*Solid Section, elset=Set-1, material=Material-1
1.,
*End Instance
**  
*Nset, nset=Set-1, instance=Part-1-1
  10,  11,  18,  19,  20,  21,  43,  44,  45,  46, 157, 158, 159, 160, 161, 162
 163, 164, 165, 166, 167, 168, 169, 170, 171, 172, 173, 174, 175, 176, 177, 178
 179, 180, 181
*Elset, elset=Set-1, instance=Part-1-1
  52,  68,  81,  86, 108, 110, 112, 128, 259, 260, 261, 264, 265, 266, 267, 268
 269, 270, 271, 272, 273, 274, 275, 276, 277, 278, 279, 280, 281, 314, 385, 397
 408, 415
*Nset, nset=Set-2, instance=Part-1-1
   1,   2,  14,  15,  16,  17,  38,  39,  40,  41,  42, 122, 123, 124, 125, 126
 127, 128, 129, 130, 131, 132, 133, 134, 135, 136, 137, 138, 139, 140, 141, 142
 143, 144, 145, 146, 147
*Elset, elset=Set-2, instance=Part-1-1
  29,  39,  64,  65,  72, 103, 105, 152, 158, 160, 229, 230, 231, 232, 233, 234
 235, 236, 237, 238, 239, 240, 241, 242, 243, 244, 245, 246, 247, 248, 251, 282
 399, 404, 412, 444
*Nset, nset=Set-4, instance=Part-1-1, generate
    1,  1784,     1
*Elset, elset=Set-4, instance=Part-1-1, generate
    1,  1723,     1
*Nset, nset=Set-6, instance=Part-1-1, generate
    1,  1784,     1
*Elset, elset=Set-6, instance=Part-1-1, generate
    1,  1723,     1
*Elset, elset=_Surf-1_S4, internal, instance=Part-1-1
  35,  37,  53,  95, 113, 116, 118, 134, 140, 283, 284, 285, 286, 287, 288, 290
 291, 292, 293, 295, 296, 297, 298, 299, 300, 301, 302, 303, 304, 305, 306, 307
 308, 309, 310, 311, 313, 319, 325, 338, 340, 352, 366, 376, 377
*Elset, elset=_Surf-1_S2, internal, instance=Part-1-1
 107, 120, 122, 124, 250, 261, 262, 289, 294, 312, 333, 348, 358, 373
*Elset, elset=_Surf-1_S1, internal, instance=Part-1-1
 282,
*Surface, type=ELEMENT, name=Surf-1
_Surf-1_S4, S4
_Surf-1_S2, S2
_Surf-1_S1, S1
*End Assembly
** 
** MATERIALS
** 
*Material, name=Material-1
*Elastic
1000., 0.3
** ----------------------------------------------------------------
** 
** STEP: Step-1
** 
*Step, name=Step-1, nlgeom=NO
*Static
1., 1., 1e-05, 1.
** 
** BOUNDARY CONDITIONS
** 
** Name: BC-x Type: Symmetry/Antisymmetry/Encastre
*Boundary
Set-2, XSYMM
** Name: BC-y Type: Symmetry/Antisymmetry/Encastre
*Boundary
Set-1, YSYMM
** 
** LOADS
** 
** Name: Load-pressure   Type: Pressure
*Dsload
Surf-1, P, 1e-05
** 
** OUTPUT REQUESTS
** 
*Restart, write, frequency=0
** 
** FIELD OUTPUT: F-Output-1
** 
*Output, field, variable=PRESELECT
** 
** FIELD OUTPUT:  from REMESHING RULE: RemeshingRule-1
** 
*Output, field, frequency=99999
*Element Output, elset=Set-4, directions=YES
ENDENERI, ENDEN, ELEN, MISESERI, MISESAVG, S, EVOL
** 
** HISTORY OUTPUT: H-Output-1
** 
*Output, history, variable=PRESELECT
*End Step
