*Heading
** Job name: Adaptivity-minmax-iter1 Model name: Model-1
** Generated by: Abaqus/CAE 6.14-1
*Preprint, echo=NO, model=NO, history=NO, contact=NO
**
** PARTS
**
*Part, name=Part-1
*End Part
**  
**
** ASSEMBLY
**
*Assembly, name=Assembly
**  
*Instance, name=Part-1-1, part=Part-1
*Node
      1,           0.,         176.
      2,           0.,          44.
      3,   -25.047411,   174.208572
      4,  -49.5849304,   168.870758
      5,  -73.1130447,    160.09523
      6,  -95.1527863,   148.060623
      7,  -115.255486,   133.011932
      8,  -133.011932,   115.255486
      9,  -148.060623,   95.1527863
     10,   -160.09523,   73.1130447
     11,  -168.870758,   49.5849304
     12,  -174.208572,    25.047411
     13,        -176.,           0.
     14,         -44.,           0.
     15,         -22.,   38.1051178
     16,  -38.1051178,          22.
     17,           0.,   149.600006
     18,           0.,   123.199997
     19,           0.,   96.8000031
     20,           0.,   70.4000015
** ... 34 like lines cut
*Element, type=CPE3
1, 53, 47, 32
2, 50, 25, 44
*Element, type=CPE4R
 3, 34, 51, 31, 40
 4,  5, 29, 31,  4
 5,  6, 26, 29,  5
 6,  2, 20, 44, 15
 7, 19, 18, 34, 35
 8, 46, 40, 39, 52
 9, 37, 33, 27, 42
10, 45, 42, 38, 54
11, 54, 47, 36, 45
12, 43, 21, 14, 16
13, 32, 11, 12, 53
14, 11, 32, 28, 10
15, 13, 24, 53, 12
16, 25, 16, 15, 44
17, 17,  1,  3, 51
18, 17, 51, 34, 18
19, 22, 21, 43, 36
20, 28, 54, 38, 30
21, 45, 49, 48, 42
22, 35, 44, 20, 19
** ... 20 like lines cut
*Nset, nset=Set-1, generate
  1,  54,   1
*Elset, elset=Set-1, generate
  1,  42,   1
** Section: Section-1
*Solid Section, elset=Set-1, material=Material-1
1.,
*End Instance
**  
*Nset, nset=Set-1, instance=Part-1-1
 13, 14, 21, 22, 23, 24
*Elset, elset=Set-1, instance=Part-1-1
 12, 15, 19, 29, 32
*Nset, nset=Set-2, instance=Part-1-1
  1,  2, 17, 18, 19, 20
*Elset, elset=Set-2, instance=Part-1-1
  6,  7, 17, 18, 22
*Nset, nset=Set-4, instance=Part-1-1, generate
  1,  54,   1
*Elset, elset=Set-4, instance=Part-1-1, generate
  1,  42,   1
*Nset, nset=Set-6, instance=Part-1-1, generate
  1,  54,   1
*Elset, elset=Set-6, instance=Part-1-1, generate
  1,  42,   1
*Elset, elset=_Surf-1_S4, internal, instance=Part-1-1
 6,
*Elset, elset=_Surf-1_S3, internal, instance=Part-1-1
 12,
*Elset, elset=_Surf-1_S2, internal, instance=Part-1-1
 16,
*Surface, type=ELEMENT, name=Surf-1
_Surf-1_S4, S4
_Surf-1_S3, S3
_Surf-1_S2, S2
*End Assembly
** 
** MATERIALS
** 
*Material, name=Material-1
*Elastic
1000., 0.3
** ----------------------------------------------------------------
** 
** STEP: Step-1
** 
*Step, name=Step-1, nlgeom=NO
*Static
1., 1., 1e-05, 1.
** 
** BOUNDARY CONDITIONS
** 
** Name: BC-x Type: Symmetry/Antisymmetry/Encastre
*Boundary
Set-2, XSYMM
** Name: BC-y Type: Symmetry/Antisymmetry/Encastre
*Boundary
Set-1, YSYMM
** 
** LOADS
** 
** Name: Load-pressure   Type: Pressure
*Dsload
Surf-1, P, 1e-05
** 
** OUTPUT REQUESTS
** 
*Restart, write, frequency=0
** 
** FIELD OUTPUT: F-Output-1
** 
*Output, field, variable=PRESELECT
** 
** FIELD OUTPUT:  from REMESHING RULE: RemeshingRule-1
** 
*Output, field, frequency=99999
*Element Output, elset=Set-4, directions=YES
ENDENERI, ENDEN, ELEN, MISESERI, MISESAVG, S, EVOL
** 
** HISTORY OUTPUT: H-Output-1
** 
*Output, history, variable=PRESELECT
*End Step
