*Heading
** Job name: Adaptivity-uniform-iter6 Model name: Model-1
** Generated by: Abaqus/CAE 6.14-1
*Preprint, echo=NO, model=NO, history=NO, contact=NO
**
** PARTS
**
*Part, name=Part-1
*End Part
**  
**
** ASSEMBLY
**
*Assembly, name=Assembly
**  
*Instance, name=Part-1-1, part=Part-1
*Node
      1,           0.,         176.
      2,           0.,          44.
      3,  -25.1516991,   174.193542
      4,  -69.4208832,   161.730453
      5,  -99.6014862,   145.105286
      6,  -125.985565,   122.896851
      7,  -145.004623,   99.7479858
      8,   -160.71402,   71.7426147
      9,  -174.157654,   25.3990097
     10,        -176.,           0.
     11,         -44.,           0.
     12,   -19.843502,   39.2713051
     13,  -39.0047379,   20.3624763
     14,           0.,   152.885315
     15,           0.,   126.547897
     16,           0.,   89.9304733
     17,           0.,   73.5788727
     18,   -67.923027,           0.
     19,  -89.9462509,           0.
     20,  -126.485649,           0.
** ... 33164 like lines cut
*Element, type=CPE3
   1,  8983,  9400, 19819
   2, 26553, 12312, 12065
   3, 24684,  4679,  5370
   4, 10189, 17183, 17032
   5, 29101, 27566, 19021
   6, 27360, 27154,   592
   7, 26218, 25872,  6108
   8, 28461,  8972,  8985
   9,  2353,  7777,  8300
  10,  6330,  6866, 26136
  11,  7409,  1164, 19359
  12, 10056,  1838, 10054
  13, 20043, 10869, 10111
  14, 23244,  2716, 23195
  15, 10882, 23672, 30053
  16, 30830, 13209, 21072
  17, 14120, 15126,  2638
  18, 24279, 12057, 23347
  19, 31918, 21909, 17299
  20, 29007,   316,  1880
** ... 1007 like lines cut
*Element, type=CPE4R
 1028,  3215, 18152, 27347, 27039
 1029, 27039, 27347, 17974,  3173
 1030, 30007, 18136, 20734, 18053
 1031, 30007, 30115,    32, 18136
 1032, 20680, 18113, 20604, 30037
 1033, 30202, 18113, 18026, 17671
 1034, 20386, 18688, 26778, 18409
 1035, 18703, 18688, 20386, 18506
 1036,  3201, 20277, 27524, 18276
 1037, 18276, 27477, 27427,  3201
 1038, 18547, 27238, 26965, 18696
 1039, 18484, 26965, 27238, 28359
 1040, 19775, 18428, 18440,  3241
 1041, 17466, 19225, 17641, 17594
 1042,  3089, 17466, 17594, 17623
 1043,   142, 17285, 17276,  4039
 1044, 27871, 17288, 17289, 17474
 1045,  3084, 27871, 17474, 17630
 1046, 18300, 18085,  3142, 18237
 1047,  3317, 18219, 18346, 18520
** ... 32318 like lines cut
*Nset, nset=Set-1, generate
     1,  33184,      1
*Elset, elset=Set-1, generate
     1,  33365,      1
** Section: Section-1
*Solid Section, elset=Set-1, material=Material-1
1.,
*End Instance
**  
*Nset, nset=Set-1, instance=Part-1-1
     1,     2,    14,    15,    16,    17,    44,    45,    46,    47,    48,   128,   129,   130,   131,   132
   133,   134,   135,   136,   137,   138,   139,   716,   717,   718,   719,   720,   721,   722,   723,   724
   725,   726,   727,   728,   729,   730,   731,   732,   733,   734,   735,   736,   737,   738,   739,   740
   741,   742,   743,   744,   745,  3955,  3956,  3957,  3958,  3959,  3960,  3961,  3962,  3963,  3964,  3965
  3966,  3967,  3968,  3969,  3970,  3971,  3972,  3973,  3974,  3975,  3976,  3977,  3978,  3979,  3980,  3981
  3982,  3983,  3984,  3985,  3986,  3987,  3988,  3989,  3990,  3991,  3992,  3993,  3994,  3995,  3996,  3997
  3998,  3999,  4000,  4001,  4002,  4003,  4004,  4005,  4006,  4007,  4008,  4009,  4010,  4011,  4012,  4013
  4014,  4015,  4016,  4017,  4018,  4019,  4020,  4021,  4022,  4023,  4024,  4025,  4026,  4027, 22623, 22624
 22625, 22626, 22627, 22628, 22629, 22630, 22631, 22632, 22633, 22634, 22635, 22636, 22637, 22638, 22639, 22640
 22641, 22642, 22643, 22644, 22645, 22646, 22647, 22648, 22649, 22650, 22651
*Elset, elset=Set-1, instance=Part-1-1
  1082,  1084,  1096,  1102,  1230,  1236,  1279,  1440,  1441,  1445,  1458,  1591,  2066,  2069,  2071,  2072
  2078,  2083,  2084,  2088,  2093,  2096,  2100,  2104,  2106,  2203,  2430,  2613,  4769,  4770,  4771,  4772
  4774,  4777,  4778,  4780,  4781,  4784,  4785,  4791,  4793,  4795,  4796,  4799,  4803,  4805,  4808,  4811
  4812,  4814,  4818,  4821,  4823,  4827,  4830,  4831,  4837,  4840,  4842,  4843,  4848,  4850,  4851,  5237
  5304, 12215, 12216, 12217, 12218, 12219, 12220, 12221, 12223, 12225, 12226, 12227, 12228, 12230, 12231, 12232
 12233, 12236, 12237, 12238, 12239, 12241, 12242, 12244, 12245, 12246, 12247, 12248, 12250, 12251, 12253, 12254
 12255, 12257, 12258, 12259, 12260, 12263, 12264, 12266, 12267, 12269, 12270, 12271, 12272, 12273, 12274, 12275
 12276, 12277, 12278, 12281, 12282, 12283, 12284, 12285, 12286, 12287, 12288, 12289, 12290, 12291, 12292, 12293
 12294, 12295, 12296, 12297, 12298, 12299, 12300, 12302, 12428, 28612, 28613, 28614, 28615, 28616, 28617, 28618
 28619, 28620, 28621, 28622, 28623, 29850, 30626, 31558, 31605, 31669
*Nset, nset=Set-2, instance=Part-1-1
    10,    11,    18,    19,    20,    21,    49,    50,    51,    52,    53,   150,   151,   152,   153,   154
   155,   156,   157,   158,   159,   160,   161,   769,   770,   771,   772,   773,   774,   775,   776,   777
   778,   779,   780,   781,   782,   783,   784,   785,   786,   787,   788,   789,   790,   791,   792,   793
   794,   795,   796,   797,   798,   799,  4083,  4084,  4085,  4086,  4087,  4088,  4089,  4090,  4091,  4092
  4093,  4094,  4095,  4096,  4097,  4098,  4099,  4100,  4101,  4102,  4103,  4104,  4105,  4106,  4107,  4108
  4109,  4110,  4111,  4112,  4113,  4114,  4115,  4116,  4117,  4118,  4119,  4120,  4121,  4122,  4123,  4124
  4125,  4126,  4127,  4128,  4129,  4130,  4131,  4132,  4133,  4134,  4135,  4136,  4137,  4138,  4139,  4140
  4141,  4142,  4143,  4144,  4145,  4146,  4147,  4148,  4149,  4150,  4151,  4152,  4153,  4154, 22676, 22677
 22678, 22679, 22680, 22681, 22682, 22683, 22684, 22685, 22686, 22687, 22688, 22689, 22690, 22691, 22692, 22693
 22694, 22695, 22696, 22697, 22698, 22699, 22700, 22701, 22702, 22703, 22704
*Elset, elset=Set-2, instance=Part-1-1
  1171,  1172,  1198,  1200,  1260,  1261,  1309,  1315,  1316,  1333,  1499,  1509,  1510,  1517,  1518,  1642
  1643,  2159,  2160,  2164,  2169,  2170,  2173,  2180,  2181,  2188,  2192,  2193,  2194,  2201,  2202,  2343
  2346,  3244,  4908,  4909,  4910,  4914,  4916,  4918,  4920,  4921,  4923,  4924,  4925,  4926,  4928,  4929
  4934,  4935,  4936,  4938,  4939,  4940,  4943,  4945,  4948,  4949,  4951,  4952,  4955,  4956,  4959,  4960
  4962,  4963,  4966,  4967,  4969,  4970,  4972,  4975,  4980,  4981,  4984,  4987,  4990,  4993,  4996,  5283
  5284, 12359, 12360, 12362, 12363, 12364, 12365, 12366, 12367, 12368, 12369, 12370, 12371, 12372, 12373, 12374
 12375, 12376, 12377, 12378, 12379, 12380, 12381, 12382, 12383, 12384, 12385, 12387, 12388, 12389, 12390, 12391
 12392, 12393, 12394, 12395, 12396, 12398, 12399, 12400, 12401, 12404, 12405, 12408, 12409, 12410, 12411, 12412
 12413, 12414, 12416, 12417, 12418, 12419, 12420, 12421, 12422, 12423, 12424, 12425, 12426, 12427, 25711, 25724
 28632, 28633, 28634, 28635, 28636, 28637, 28638, 28639, 30127, 31676
*Nset, nset=Set-4, instance=Part-1-1, generate
     1,  33184,      1
*Elset, elset=Set-4, instance=Part-1-1, generate
     1,  33365,      1
*Elset, elset=_Surf-1_S4, internal, instance=Part-1-1
  1174,  1550,  1560,  1582,  2204,  2206,  2276,  2280,  2297,  2303,  2337,  2342,  4997,  5007,  5022,  5042
  5045,  5071,  5074,  5089,  5090,  5093,  5095,  5118,  5122,  5123,  5128, 12428, 12429, 12441, 12450, 12455
 12457, 12461, 12464, 12472, 12488, 12490, 12544
*Elset, elset=_Surf-1_S2, internal, instance=Part-1-1
  1175,  1581,  2112,  2212,  2227,  2235,  2261,  2296,  4998,  5043,  5048,  5085,  5086,  5088,  5125,  5126
  5209, 12447, 12467, 12503, 12512, 12518
*Elset, elset=_Surf-1_S1, internal, instance=Part-1-1
  1177,  1212,  1481,  1531,  1551,  2111,  2221,  2231,  2240,  2242,  2248,  2274,  2279,  2293,  2389,  2489
  2490,  5002,  5003,  5005,  5006,  5012,  5013,  5017,  5026,  5039,  5064,  5068,  5070,  5077,  5082,  5087
  5096,  5100,  5101,  5102,  5106,  5127,  5219,  5245, 12430, 12435, 12445, 12448, 12451, 12465, 12475, 12477
 12479, 12481, 12485, 12486, 12489, 12492, 12493, 12497, 12506, 12513, 12525, 12526, 12527, 12532, 12534, 12539
 12550, 12551, 12554, 12571
*Elset, elset=_Surf-1_S3, internal, instance=Part-1-1
  1213,  1530,  1571,  2149,  2150,  2153,  2154,  2207,  2239,  2241,  2243,  2247,  2252,  2257,  2263,  2270
  2271,  2275,  2277,  2289,  2300,  2301,  2311,  2321,  2327,  2336,  2360,  2361,  2453,  2488,  2491,  2514
  2515,  2560,  4908,  5008,  5009,  5014,  5015,  5016,  5018,  5020,  5025,  5027,  5029,  5031,  5032,  5038
  5049,  5052,  5053,  5059,  5069,  5076,  5079,  5080,  5081,  5097,  5099,  5103,  5108,  5109,  5110,  5116
  5120,  5244,  5255, 12431, 12432, 12433, 12434, 12436, 12437, 12438, 12439, 12440, 12442, 12443, 12444, 12446
 12449, 12452, 12453, 12454, 12456, 12458, 12459, 12460, 12463, 12466, 12468, 12469, 12471, 12474, 12476, 12478
 12480, 12482, 12483, 12484, 12487, 12491, 12511, 12528, 12555, 12582
*Surface, type=ELEMENT, name=Surf-1
_Surf-1_S4, S4
_Surf-1_S2, S2
_Surf-1_S1, S1
_Surf-1_S3, S3
*End Assembly
** 
** MATERIALS
** 
*Material, name=Material-1
*Elastic
1000., 0.3
** ----------------------------------------------------------------
** 
** STEP: Step-1
** 
*Step, name=Step-1, nlgeom=NO
*Static
1., 1., 1e-05, 1.
** 
** BOUNDARY CONDITIONS
** 
** Name: BC-x-symm Type: Symmetry/Antisymmetry/Encastre
*Boundary
Set-1, XSYMM
** Name: BC-y-symm Type: Symmetry/Antisymmetry/Encastre
*Boundary
Set-2, YSYMM
** 
** LOADS
** 
** Name: Load-1   Type: Pressure
*Dsload
Surf-1, P, 1e-05
** 
** OUTPUT REQUESTS
** 
*Restart, write, frequency=0
** 
** FIELD OUTPUT: F-Output-1
** 
*Output, field, variable=PRESELECT
** 
** FIELD OUTPUT:  from REMESHING RULE: RemeshingRule-1
** 
*Output, field, frequency=99999
*Element Output, elset=Set-4, directions=YES
ENDENERI, ENDEN, ELEN, MISESERI, MISESAVG, S, EVOL
** 
** HISTORY OUTPUT: H-Output-1
** 
*Output, history, variable=PRESELECT
*End Step
