*Heading
** Job name: asli Model name: Model-2
** Generated by: Abaqus/CAE 6.14-1
*Preprint, echo=NO, model=NO, history=NO, contact=NO
** ----------------------------------------------------------------
** 
** PART INSTANCE: col_Z1-1
** 
*System
        -15.,        -15.,       4000.,        -14.,        -15.,       4000.
*Node
      1,         200.,         200.,        2000.
      2,         200.,         150.,        2000.
      3,         200.,         100.,        2000.
      4,         200.,          50.,        2000.
      5,         200.,           0.,        2000.
    201,         200.,         200.,           0.
    202,         200.,         150.,           0.
    203,         200.,         100.,           0.
    204,         200.,          50.,           0.
    205,         200.,           0.,           0.
    206,         150.,         200.,        2000.
    207,         150.,         150.,        2000.
    208,         150.,         100.,        2000.
    209,         150.,          50.,        2000.
    210,         150.,           0.,        2000.
    406,         150.,         200.,           0.
    407,         150.,         150.,           0.
    408,         150.,         100.,           0.
    409,         150.,          50.,           0.
    410,         150.,           0.,           0.
** ... 30 like lines cut
*Element, type=Z1, file=col
1,    1,    2,    3,    4,    5,  201,  202,  203,  204,  205,  206,  207,  208,  209,  210,
    406,  407,  408,  409,  410,  411,  412,  413,  414,  415,  611,  612,  613,  614,  615,  616,
    617,  618,  619,  620,  816,  817,  818,  819,  820,  821,  822,  823,  824,  825, 1021, 1022,
   1023, 1024, 1025
*Elset, elset=col_Z1-1__col_Z1_Elset
 1,
*Substructure Property, elset=col_Z1-1__col_Z1_Elset
        -15.,         -15.,        4000.
** ----------------------------------------------------------------
** 
** PART INSTANCE: col_Z1-2
** 
*System
        -15.,       1815.,       4000.,        -14.,       1815.,       4000.
*Node
   2001,         200.,         200.,        2000.
   2002,         200.,         150.,        2000.
   2003,         200.,         100.,        2000.
   2004,         200.,          50.,        2000.
   2005,         200.,           0.,        2000.
   2201,         200.,         200.,           0.
   2202,         200.,         150.,           0.
   2203,         200.,         100.,           0.
   2204,         200.,          50.,           0.
   2205,         200.,           0.,           0.
   2206,         150.,         200.,        2000.
   2207,         150.,         150.,        2000.
   2208,         150.,         100.,        2000.
   2209,         150.,          50.,        2000.
   2210,         150.,           0.,        2000.
   2406,         150.,         200.,           0.
   2407,         150.,         150.,           0.
   2408,         150.,         100.,           0.
   2409,         150.,          50.,           0.
   2410,         150.,           0.,           0.
** ... 30 like lines cut
*Element, type=Z1, file=col
2, 2001, 2002, 2003, 2004, 2005, 2201, 2202, 2203, 2204, 2205, 2206, 2207, 2208, 2209, 2210,
   2406, 2407, 2408, 2409, 2410, 2411, 2412, 2413, 2414, 2415, 2611, 2612, 2613, 2614, 2615, 2616,
   2617, 2618, 2619, 2620, 2816, 2817, 2818, 2819, 2820, 2821, 2822, 2823, 2824, 2825, 3021, 3022,
   3023, 3024, 3025
*Elset, elset=col_Z1-2__col_Z1_Elset
 2,
*Substructure Property, elset=col_Z1-2__col_Z1_Elset
        -15.,        1815.,        4000.
** ----------------------------------------------------------------
** 
** PART INSTANCE: col_Z1-3
** 
*System
       1815.,        -15.,       4000.,       1816.,        -15.,       4000.
*Node
   3026,         200.,         200.,        2000.
   3027,         200.,         150.,        2000.
   3028,         200.,         100.,        2000.
   3029,         200.,          50.,        2000.
   3030,         200.,           0.,        2000.
   3226,         200.,         200.,           0.
   3227,         200.,         150.,           0.
   3228,         200.,         100.,           0.
   3229,         200.,          50.,           0.
   3230,         200.,           0.,           0.
   3231,         150.,         200.,        2000.
   3232,         150.,         150.,        2000.
   3233,         150.,         100.,        2000.
   3234,         150.,          50.,        2000.
   3235,         150.,           0.,        2000.
   3431,         150.,         200.,           0.
   3432,         150.,         150.,           0.
   3433,         150.,         100.,           0.
   3434,         150.,          50.,           0.
   3435,         150.,           0.,           0.
** ... 30 like lines cut
*Element, type=Z1, file=col
3, 3026, 3027, 3028, 3029, 3030, 3226, 3227, 3228, 3229, 3230, 3231, 3232, 3233, 3234, 3235,
   3431, 3432, 3433, 3434, 3435, 3436, 3437, 3438, 3439, 3440, 3636, 3637, 3638, 3639, 3640, 3641,
   3642, 3643, 3644, 3645, 3841, 3842, 3843, 3844, 3845, 3846, 3847, 3848, 3849, 3850, 4046, 4047,
   4048, 4049, 4050
*Elset, elset=col_Z1-3__col_Z1_Elset
 3,
*Substructure Property, elset=col_Z1-3__col_Z1_Elset
       1815.,         -15.,        4000.
** ----------------------------------------------------------------
** 
** PART INSTANCE: col_Z1-4
** 
*System
       1815.,       1815.,       4000.,       1816.,       1815.,       4000.
*Node
   4051,         200.,         200.,        2000.
   4052,         200.,         150.,        2000.
   4053,         200.,         100.,        2000.
   4054,         200.,          50.,        2000.
   4055,         200.,           0.,        2000.
   4251,         200.,         200.,           0.
   4252,         200.,         150.,           0.
   4253,         200.,         100.,           0.
   4254,         200.,          50.,           0.
   4255,         200.,           0.,           0.
   4256,         150.,         200.,        2000.
   4257,         150.,         150.,        2000.
   4258,         150.,         100.,        2000.
   4259,         150.,          50.,        2000.
   4260,         150.,           0.,        2000.
   4456,         150.,         200.,           0.
   4457,         150.,         150.,           0.
   4458,         150.,         100.,           0.
   4459,         150.,          50.,           0.
   4460,         150.,           0.,           0.
** ... 30 like lines cut
*Element, type=Z1, file=col
4, 4051, 4052, 4053, 4054, 4055, 4251, 4252, 4253, 4254, 4255, 4256, 4257, 4258, 4259, 4260,
   4456, 4457, 4458, 4459, 4460, 4461, 4462, 4463, 4464, 4465, 4661, 4662, 4663, 4664, 4665, 4666,
   4667, 4668, 4669, 4670, 4866, 4867, 4868, 4869, 4870, 4871, 4872, 4873, 4874, 4875, 5071, 5072,
   5073, 5074, 5075
*Elset, elset=col_Z1-4__col_Z1_Elset
 4,
*Substructure Property, elset=col_Z1-4__col_Z1_Elset
       1815.,        1815.,        4000.
** ----------------------------------------------------------------
** 
** PART INSTANCE: Part-2-1
** 
*System
       1165.,        610.,       4000.,       1164.,        610.,       4000.
       1165.,        611.,       4000.
*Node
   5076,        -835.,        1390.,        2000.
   5077,        1165.,        1390.,        2000.
   5078,        1165.,        -610.,        2000.
   5079,        -835.,        -610.,        2000.
   5080,        -850.,        1405.,        2000.
   5081,        -850.,        -625.,        2000.
   5082,        1180.,        -625.,        2000.
   5083,        1180.,        1405.,        2000.
   5084,        -835.,        1390.,           1.
   5085,        1165.,        1390.,           1.
   5086,        1165.,        -610.,           1.
   5087,        -835.,        -610.,           1.
   5088,        1180.,        1405.,           1.
   5089,        -850.,        1405.,           1.
   5090,        -850.,        -625.,           1.
   5091,        1180.,        -625.,           1.
   5092,        -850.,        1405.,           0.
   5093,        1180.,        1405.,           0.
   5094,        1180.,        -625.,           0.
   5095,        -850.,        -625.,           0.
** ... 44268 like lines cut
*Element, type=C3D8R
    5,  5122,  6854,  6855,  5123, 13337, 35420, 35421, 13336
    6,  5400,  5399,  6856,  6855, 17977, 17978, 35422, 35421
    7,  5399,  5398,  6857,  6856, 17978, 17979, 35423, 35422
    8,  5395,  5394,  6861,  6860, 17982, 17983, 35427, 35426
    9,  5391,  5390,  6865,  6864, 17986, 17987, 35431, 35430
   10,  5380,  5142,  5141,  5381, 17997, 13317, 13318, 17996
   11,  5120,  6852,  6853,  5121, 13339, 35418, 35419, 13338
   12,  5403,  5402,  6853,  6852, 17974, 17975, 35419, 35418
   13,  5406,  5405,  6850,  6849, 17971, 17972, 35416, 35415
   14,  5405,  5404,  6851,  6850, 17972, 17973, 35417, 35416
   15,  6844,  6846,  5114,  5113, 35410, 35412, 13345, 13346
   16,  5116,  5115,  6847,  6848, 13343, 13344, 35413, 35414
   17,  5077,  5083,  5379,  6869,  5615,  5692, 14838, 35435
   18,  6873,  5146,  5145,  6872, 35439, 11831, 11832, 35438
   19,  5152,  5151,  6876,  6877, 11825, 11826, 35442, 35443
   20,  5156,  5155,  6879,  6880, 11821, 11822, 35445, 35446
   21,  6882,  5158,  5157,  6881, 35448, 11819, 11820, 35447
   22,  6883,  5160,  5159,  7006, 35449, 11817, 11818, 35572
   23,  6887,  6888,  6907,  5164, 35453, 35454, 35473, 11813
   24,  5355,  6889,  6906,  5356, 14862, 35455, 35472, 14861
** ... 29201 like lines cut
*Nset, nset=Part-2-1_Set-1, generate
  5076,  49363,      1
*Elset, elset=Part-2-1_Set-1, generate
     5,  29225,      1
** Section: Section-1
*Solid Section, elset=Part-2-1_Set-1, material=Material-st
,
*System
*Nset, nset=Set-2
2001,2002,2003,2004,2005,2206,2207,2208,2209,2210,2411,2412,2413,2414,2415,2616
2617,2618,2619,2620,2821,2822,2823,2824,2825
*Nset, nset=Set-2
   1,   2,   3,   4,   5, 206, 207, 208, 209, 210, 411, 412, 413, 414, 415, 616
 617, 618, 619, 620, 821, 822, 823, 824, 825
*Nset, nset=Set-2
3026,3027,3028,3029,3030,3231,3232,3233,3234,3235,3436,3437,3438,3439,3440,3641
3642,3643,3644,3645,3846,3847,3848,3849,3850
*Nset, nset=Set-2
4051,4052,4053,4054,4055,4256,4257,4258,4259,4260,4461,4462,4463,4464,4465,4666
4667,4668,4669,4670,4871,4872,4873,4874,4875
*Nset, nset=Set-4
   1,   2,   3,   4,   5, 206, 207, 208, 209, 210, 411, 412, 413, 414, 415, 616
 617, 618, 619, 620, 821, 822, 823, 824, 825
*Nset, nset=Set-4
2001,2002,2003,2004,2005,2206,2207,2208,2209,2210,2411,2412,2413,2414,2415,2616
2617,2618,2619,2620,2821,2822,2823,2824,2825
*Nset, nset=Set-4
3026,3027,3028,3029,3030,3231,3232,3233,3234,3235,3436,3437,3438,3439,3440,3641
3642,3643,3644,3645,3846,3847,3848,3849,3850
*Nset, nset=Set-4
4051,4052,4053,4054,4055,4256,4257,4258,4259,4260,4461,4462,4463,4464,4465,4666
4667,4668,4669,4670,4871,4872,4873,4874,4875
*Nset, nset=m_Set-1
 4251, 4252, 4253, 4254, 4255, 4456, 4457, 4458, 4459, 4460, 4661, 4662, 4663, 4664, 4665, 4866
 4867, 4868, 4869, 4870, 5071, 5072, 5073, 5074, 5075
*Nset, nset=m_Set-1
 3226, 3227, 3228, 3229, 3230, 3431, 3432, 3433, 3434, 3435, 3636, 3637, 3638, 3639, 3640, 3841
 3842, 3843, 3844, 3845, 4046, 4047, 4048, 4049, 4050
*Nset, nset=m_Set-1
  201,  202,  203,  204,  205,  406,  407,  408,  409,  410,  611,  612,  613,  614,  615,  816
  817,  818,  819,  820, 1021, 1022, 1023, 1024, 1025
*Nset, nset=m_Set-1
 2201, 2202, 2203, 2204, 2205, 2406, 2407, 2408, 2409, 2410, 2611, 2612, 2613, 2614, 2615, 2816
 2817, 2818, 2819, 2820, 3021, 3022, 3023, 3024, 3025
*Nset, nset=m_Set-5
 4251, 4252, 4253, 4254, 4255, 4456, 4457, 4458, 4459, 4460, 4661, 4662, 4663, 4664, 4665, 4866
 4867, 4868, 4869, 4870, 5071, 5072, 5073, 5074, 5075
*Nset, nset=m_Set-5
 2201, 2202, 2203, 2204, 2205, 2406, 2407, 2408, 2409, 2410, 2611, 2612, 2613, 2614, 2615, 2816
 2817, 2818, 2819, 2820, 3021, 3022, 3023, 3024, 3025
*Nset, nset=m_Set-5
 3226, 3227, 3228, 3229, 3230, 3431, 3432, 3433, 3434, 3435, 3636, 3637, 3638, 3639, 3640, 3841
 3842, 3843, 3844, 3845, 4046, 4047, 4048, 4049, 4050
*Nset, nset=m_Set-5
  201,  202,  203,  204,  205,  406,  407,  408,  409,  410,  611,  612,  613,  614,  615,  816
  817,  818,  819,  820, 1021, 1022, 1023, 1024, 1025
*Nset, nset=s_Set-3
 3226, 3227, 3229, 3230, 3431, 3432, 3433, 3434, 3435, 3636, 3637, 3638, 3639, 3640, 3841, 3842
 3843, 3844, 3845, 4046, 4047, 4048, 4049, 4050
*Nset, nset=s_Set-3
  201,  202,  203,  204,  205,  406,  407,  408,  409,  410,  611,  612,  613,  614,  615,  816
  817,  818,  819,  820, 1021, 1022, 1023, 1024, 1025
*Nset, nset=s_Set-3
 2201, 2202, 2203, 2204, 2205, 2406, 2407, 2408, 2409, 2410, 2611, 2612, 2613, 2614, 2615, 2816
 2817, 2818, 2819, 2820, 3021, 3022, 3023, 3024, 3025
*Nset, nset=s_Set-3
 4251, 4252, 4253, 4254, 4255, 4456, 4457, 4458, 4459, 4460, 4661, 4662, 4663, 4664, 4665, 4866
 4867, 4868, 4869, 4870, 5071, 5072, 5073, 5074, 5075
*Elset, elset=_Surf-6_S3
   269,   282,   285,   289,   328,   332,   344,   610,   623,   626,   630,   669,   673,   685,   951,   964
   967,   971,  1010,  1014,  1026,  1292,  1305,  1308,  1312,  1351,  1355,  1367,  1633,  1646,  1649,  1653
  1692,  1696,  1708,  1974,  1987,  1990,  1994,  2033,  2037,  2049,  2315,  2328,  2331,  2335,  2374,  2378
  2390,  2656,  2669,  2672,  2676,  2715,  2719,  2731,  2997,  3010,  3013,  3017,  3056,  3060,  3072,  3338
  3351,  3354,  3358,  3397,  3401,  3413,  3679,  3692,  3695,  3699,  3738,  3742,  3754,  4020,  4033,  4036
  4040,  4079,  4083,  4095,  4361,  4374,  4377,  4381,  4420,  4424,  4436,  4702,  4715,  4718,  4722,  4761
  4765,  4777,  5043,  5056,  5059,  5063,  5102,  5106,  5118,  5384,  5397,  5400,  5404,  5443,  5447,  5459
  5725,  5738,  5741,  5745,  5784,  5788,  5800,  6066,  6079,  6082,  6086,  6125,  6129,  6141,  6407,  6420
  6423,  6427,  6466,  6470,  6482,  6748,  6761,  6764,  6768,  6807,  6811,  6823,  7089,  7102,  7105,  7109
  7148,  7152,  7164,  7430,  7443,  7446,  7450,  7489,  7493,  7505,  7771,  7784,  7787,  7791,  7830,  7834
  7846,  8112,  8125,  8128,  8132,  8171,  8175,  8187,  8453,  8466,  8469,  8473,  8512,  8516,  8528,  8794
  8807,  8810,  8814,  8853,  8857,  8869,  9135,  9148,  9151,  9155,  9194,  9198,  9210,  9476,  9489,  9492
  9496,  9535,  9539,  9551,  9817,  9830,  9833,  9837,  9876,  9880,  9892, 10158, 10171, 10174, 10178, 10217
 10221, 10233, 10499, 10512, 10515, 10519, 10558, 10562, 10574, 10840, 10853, 10856, 10860, 10899, 10903, 10915
 11181, 11194, 11197, 11201, 11240, 11244, 11256, 11522, 11535, 11538, 11542, 11581, 11585, 11597, 11863, 11876
 11879, 11883, 11922, 11926, 11938, 12204, 12217, 12220, 12224, 12263, 12267, 12279, 12545, 12558, 12561, 12565
 12604, 12608, 12620, 12886, 12899, 12902, 12906, 12945, 12949, 12961, 13227, 13240, 13243, 13247, 13286, 13290
 13302, 13568, 13581, 13584, 13588, 13627, 13631, 13643, 15621, 15632, 15854, 15862, 15864, 15865, 15867, 15880
 15884, 15896, 15914, 15915, 15916, 15917, 15918, 15919, 15920, 15921, 15922, 15923, 15962, 15973, 16195, 16203
 16205, 16206, 16208, 16221, 16225, 16237, 16255, 16256, 16257, 16258, 16259, 16260, 16261, 16262, 16263, 16264
** ... 48 like lines cut
*Elset, elset=_Surf-6_S5
   127,   287,   314,   316,   318,   321,   322,   329,   468,   628,   655,   657,   659,   662,   663,   670
   809,   969,   996,   998,  1000,  1003,  1004,  1011,  1150,  1310,  1337,  1339,  1341,  1344,  1345,  1352
  1491,  1651,  1678,  1680,  1682,  1685,  1686,  1693,  1832,  1992,  2019,  2021,  2023,  2026,  2027,  2034
  2173,  2333,  2360,  2362,  2364,  2367,  2368,  2375,  2514,  2674,  2701,  2703,  2705,  2708,  2709,  2716
  2855,  3015,  3042,  3044,  3046,  3049,  3050,  3057,  3196,  3356,  3383,  3385,  3387,  3390,  3391,  3398
  3537,  3697,  3724,  3726,  3728,  3731,  3732,  3739,  3878,  4038,  4065,  4067,  4069,  4072,  4073,  4080
  4219,  4379,  4406,  4408,  4410,  4413,  4414,  4421,  4560,  4720,  4747,  4749,  4751,  4754,  4755,  4762
  4901,  5061,  5088,  5090,  5092,  5095,  5096,  5103,  5242,  5402,  5429,  5431,  5433,  5436,  5437,  5444
  5583,  5743,  5770,  5772,  5774,  5777,  5778,  5785,  5924,  6084,  6111,  6113,  6115,  6118,  6119,  6126
  6265,  6425,  6452,  6454,  6456,  6459,  6460,  6467,  6606,  6766,  6793,  6795,  6797,  6800,  6801,  6808
  6947,  7107,  7134,  7136,  7138,  7141,  7142,  7149,  7288,  7448,  7475,  7477,  7479,  7482,  7483,  7490
  7629,  7789,  7816,  7818,  7820,  7823,  7824,  7831,  7970,  8130,  8157,  8159,  8161,  8164,  8165,  8172
  8311,  8471,  8498,  8500,  8502,  8505,  8506,  8513,  8652,  8812,  8839,  8841,  8843,  8846,  8847,  8854
  8993,  9153,  9180,  9182,  9184,  9187,  9188,  9195,  9334,  9494,  9521,  9523,  9525,  9528,  9529,  9536
  9675,  9835,  9862,  9864,  9866,  9869,  9870,  9877, 10016, 10176, 10203, 10205, 10207, 10210, 10211, 10218
 10357, 10517, 10544, 10546, 10548, 10551, 10552, 10559, 10698, 10858, 10885, 10887, 10889, 10892, 10893, 10900
 11039, 11199, 11226, 11228, 11230, 11233, 11234, 11241, 11380, 11540, 11567, 11569, 11571, 11574, 11575, 11582
 11721, 11881, 11908, 11910, 11912, 11915, 11916, 11923, 12062, 12222, 12249, 12251, 12253, 12256, 12257, 12264
 12403, 12563, 12590, 12592, 12594, 12597, 12598, 12605, 12744, 12904, 12931, 12933, 12935, 12938, 12939, 12946
 13085, 13245, 13272, 13274, 13276, 13279, 13280, 13287, 13426, 13586, 13613, 13615, 13617, 13620, 13621, 13628
** ... 15 like lines cut
*Elset, elset=_Surf-6_S4
    55,   276,   280,   317,   319,   320,   396,   617,   621,   658,   660,   661,   737,   958,   962,   999
  1001,  1002,  1078,  1299,  1303,  1340,  1342,  1343,  1419,  1640,  1644,  1681,  1683,  1684,  1760,  1981
  1985,  2022,  2024,  2025,  2101,  2322,  2326,  2363,  2365,  2366,  2442,  2663,  2667,  2704,  2706,  2707
  2783,  3004,  3008,  3045,  3047,  3048,  3124,  3345,  3349,  3386,  3388,  3389,  3465,  3686,  3690,  3727
  3729,  3730,  3806,  4027,  4031,  4068,  4070,  4071,  4147,  4368,  4372,  4409,  4411,  4412,  4488,  4709
  4713,  4750,  4752,  4753,  4829,  5050,  5054,  5091,  5093,  5094,  5170,  5391,  5395,  5432,  5434,  5435
  5511,  5732,  5736,  5773,  5775,  5776,  5852,  6073,  6077,  6114,  6116,  6117,  6193,  6414,  6418,  6455
  6457,  6458,  6534,  6755,  6759,  6796,  6798,  6799,  6875,  7096,  7100,  7137,  7139,  7140,  7216,  7437
  7441,  7478,  7480,  7481,  7557,  7778,  7782,  7819,  7821,  7822,  7898,  8119,  8123,  8160,  8162,  8163
  8239,  8460,  8464,  8501,  8503,  8504,  8580,  8801,  8805,  8842,  8844,  8845,  8921,  9142,  9146,  9183
  9185,  9186,  9262,  9483,  9487,  9524,  9526,  9527,  9603,  9824,  9828,  9865,  9867,  9868,  9944, 10165
 10169, 10206, 10208, 10209, 10285, 10506, 10510, 10547, 10549, 10550, 10626, 10847, 10851, 10888, 10890, 10891
 10967, 11188, 11192, 11229, 11231, 11232, 11308, 11529, 11533, 11570, 11572, 11573, 11649, 11870, 11874, 11911
 11913, 11914, 11990, 12211, 12215, 12252, 12254, 12255, 12331, 12552, 12556, 12593, 12595, 12596, 12672, 12893
 12897, 12934, 12936, 12937, 13013, 13234, 13238, 13275, 13277, 13278, 13354, 13575, 13579, 13616, 13618, 13619
 15708, 15868, 15895, 15897, 15899, 15902, 15903, 15910, 16049, 16209, 16236, 16238, 16240, 16243, 16244, 16251
 16390, 16550, 16577, 16579, 16581, 16584, 16585, 16592, 16731, 16891, 16918, 16920, 16922, 16925, 16926, 16933
 17072, 17232, 17259, 17261, 17263, 17266, 17267, 17274, 17413, 17573, 17600, 17602, 17604, 17607, 17608, 17615
 17754, 17914, 17941, 17943, 17945, 17948, 17949, 17956, 18095, 18255, 18282, 18284, 18286, 18289, 18290, 18297
 18436, 18596, 18623, 18625, 18627, 18630, 18631, 18638, 18777, 18937, 18964, 18966, 18968, 18971, 18972, 18979
** ... 15 like lines cut
*Elset, elset=_Surf-6_S6
    40,    51,   273,   281,   283,   284,   286,   299,   303,   315,   333,   334,   335,   336,   337,   338
   339,   340,   341,   342,   381,   392,   614,   622,   624,   625,   627,   640,   644,   656,   674,   675
   676,   677,   678,   679,   680,   681,   682,   683,   722,   733,   955,   963,   965,   966,   968,   981
   985,   997,  1015,  1016,  1017,  1018,  1019,  1020,  1021,  1022,  1023,  1024,  1063,  1074,  1296,  1304
  1306,  1307,  1309,  1322,  1326,  1338,  1356,  1357,  1358,  1359,  1360,  1361,  1362,  1363,  1364,  1365
  1404,  1415,  1637,  1645,  1647,  1648,  1650,  1663,  1667,  1679,  1697,  1698,  1699,  1700,  1701,  1702
  1703,  1704,  1705,  1706,  1745,  1756,  1978,  1986,  1988,  1989,  1991,  2004,  2008,  2020,  2038,  2039
  2040,  2041,  2042,  2043,  2044,  2045,  2046,  2047,  2086,  2097,  2319,  2327,  2329,  2330,  2332,  2345
  2349,  2361,  2379,  2380,  2381,  2382,  2383,  2384,  2385,  2386,  2387,  2388,  2427,  2438,  2660,  2668
  2670,  2671,  2673,  2686,  2690,  2702,  2720,  2721,  2722,  2723,  2724,  2725,  2726,  2727,  2728,  2729
  2768,  2779,  3001,  3009,  3011,  3012,  3014,  3027,  3031,  3043,  3061,  3062,  3063,  3064,  3065,  3066
  3067,  3068,  3069,  3070,  3109,  3120,  3342,  3350,  3352,  3353,  3355,  3368,  3372,  3384,  3402,  3403
  3404,  3405,  3406,  3407,  3408,  3409,  3410,  3411,  3450,  3461,  3683,  3691,  3693,  3694,  3696,  3709
  3713,  3725,  3743,  3744,  3745,  3746,  3747,  3748,  3749,  3750,  3751,  3752,  3791,  3802,  4024,  4032
  4034,  4035,  4037,  4050,  4054,  4066,  4084,  4085,  4086,  4087,  4088,  4089,  4090,  4091,  4092,  4093
  4132,  4143,  4365,  4373,  4375,  4376,  4378,  4391,  4395,  4407,  4425,  4426,  4427,  4428,  4429,  4430
  4431,  4432,  4433,  4434,  4473,  4484,  4706,  4714,  4716,  4717,  4719,  4732,  4736,  4748,  4766,  4767
  4768,  4769,  4770,  4771,  4772,  4773,  4774,  4775,  4814,  4825,  5047,  5055,  5057,  5058,  5060,  5073
  5077,  5089,  5107,  5108,  5109,  5110,  5111,  5112,  5113,  5114,  5115,  5116,  5155,  5166,  5388,  5396
  5398,  5399,  5401,  5414,  5418,  5430,  5448,  5449,  5450,  5451,  5452,  5453,  5454,  5455,  5456,  5457
** ... 48 like lines cut
*Surface, type=ELEMENT, name=Surf-6
_Surf-6_S3, S3
_Surf-6_S5, S5
_Surf-6_S4, S4
_Surf-6_S6, S6
*Elset, elset=_s_Surf-5_S2, generate
 13645,  15585,      1
*Surface, type=ELEMENT, name=s_Surf-5
_s_Surf-5_S2, S2
*Surface, type=NODE, name=m_Set-5_CNS_
m_Set-5, 1.
** Constraint: Constraint-1
*Tie, name=Constraint-1, adjust=yes, position tolerance=0.01
s_Surf-5, m_Set-5_CNS_
** 
** MATERIALS
** 
*Material, name=Material-st
*Elastic
200000., 0.3
** ----------------------------------------------------------------
** 
** STEP: Step-1
** 
*Step, name=Step-1, nlgeom=NO
*Static
1., 1., 1e-05, 1.
** 
** BOUNDARY CONDITIONS
** 
** Name: BC-1 Type: Displacement/Rotation
*Boundary
Set-4, 1, 1
Set-4, 2, 2
Set-4, 3, 3
Set-4, 4, 4
Set-4, 5, 5
Set-4, 6, 6
** 
** LOADS
** 
** Name: Load-1   Type: Pressure
*Dsload
Surf-6, P, 0.02
** 
** OUTPUT REQUESTS
** 
*Restart, write, frequency=0
** 
** FIELD OUTPUT: F-Output-1
** 
*Output, field, variable=PRESELECT
** 
** HISTORY OUTPUT: H-Output-1
** 
*Output, history, variable=PRESELECT
*End Step
