*Heading
** Job name: col Model name: Model-1
** Generated by: Abaqus/CAE 6.14-1
*Preprint, echo=NO, model=NO, history=NO, contact=NO
** ----------------------------------------------------------------
** 
** PART INSTANCE: Part-1-1
** 
*Node
      1,         200.,         200.,        2000.
      2,         200.,         150.,        2000.
      3,         200.,         100.,        2000.
      4,         200.,          50.,        2000.
      5,         200.,           0.,        2000.
      6,         200.,         200.,        1950.
      7,         200.,         150.,        1950.
      8,         200.,         100.,        1950.
      9,         200.,          50.,        1950.
     10,         200.,           0.,        1950.
     11,         200.,         200.,        1900.
     12,         200.,         150.,        1900.
     13,         200.,         100.,        1900.
     14,         200.,          50.,        1900.
     15,         200.,           0.,        1900.
     16,         200.,         200.,        1850.
     17,         200.,         150.,        1850.
     18,         200.,         100.,        1850.
     19,         200.,          50.,        1850.
     20,         200.,           0.,        1850.
** ... 1005 like lines cut
*Element, type=C3D8R
  1,  206,  207,  212,  211,    1,    2,    7,    6
  2,  207,  208,  213,  212,    2,    3,    8,    7
  3,  208,  209,  214,  213,    3,    4,    9,    8
  4,  209,  210,  215,  214,    4,    5,   10,    9
  5,  211,  212,  217,  216,    6,    7,   12,   11
  6,  212,  213,  218,  217,    7,    8,   13,   12
  7,  213,  214,  219,  218,    8,    9,   14,   13
  8,  214,  215,  220,  219,    9,   10,   15,   14
  9,  216,  217,  222,  221,   11,   12,   17,   16
 10,  217,  218,  223,  222,   12,   13,   18,   17
 11,  218,  219,  224,  223,   13,   14,   19,   18
 12,  219,  220,  225,  224,   14,   15,   20,   19
 13,  221,  222,  227,  226,   16,   17,   22,   21
 14,  222,  223,  228,  227,   17,   18,   23,   22
 15,  223,  224,  229,  228,   18,   19,   24,   23
 16,  224,  225,  230,  229,   19,   20,   25,   24
 17,  226,  227,  232,  231,   21,   22,   27,   26
 18,  227,  228,  233,  232,   22,   23,   28,   27
 19,  228,  229,  234,  233,   23,   24,   29,   28
 20,  229,  230,  235,  234,   24,   25,   30,   29
** ... 620 like lines cut
*Nset, nset=Part-1-1_Set-1, generate
    1,  1025,     1
*Elset, elset=Part-1-1_Set-1, generate
   1,  640,    1
** Section: Section-1
*Solid Section, elset=Part-1-1_Set-1, material=Material-st
,
*System
*Nset, nset=Set-1
    1,    2,    3,    4,    5,  201,  202,  203,  204,  205,  206,  207,  208,  209,  210,  406
  407,  408,  409,  410,  411,  412,  413,  414,  415,  611,  612,  613,  614,  615,  616,  617
  618,  619,  620,  816,  817,  818,  819,  820,  821,  822,  823,  824,  825, 1021, 1022, 1023
 1024, 1025
** 
** MATERIALS
** 
*Material, name=Material-st
*Elastic
200000., 0.3
** ----------------------------------------------------------------
** 
** STEP: Step-1
** 
*Step, name=Step-1, nlgeom=NO
*Substructure Generate, overwrite, type=Z1, recovery matrix=YES
*Damping Controls, structural=COMBINED, viscous=COMBINED
*Retained Nodal Dofs
Set-1, 1, 3
*End Step
